CDB0001
     RDKit          3D

 17 18  0  0  0  0  0  0  0  0999 V2000
   -2.3599    0.5757    0.0146 C   0  0  0  0  0  0  0  0  0  0  0  0
   -2.3621   -0.8209    0.0517 C   0  0  0  0  0  0  0  0  0  0  0  0
   -1.1564   -1.5197    0.0549 C   0  0  0  0  0  0  0  0  0  0  0  0
    0.0397   -0.8067    0.0209 C   0  0  0  0  0  0  0  0  0  0  0  0
    0.0605    0.5864   -0.0163 C   0  0  0  0  0  0  0  0  0  0  0  0
   -1.1515    1.2797   -0.0193 C   0  0  0  0  0  0  0  0  0  0  0  0
    1.3423    1.2708   -0.0507 C   0  0  0  0  0  0  0  0  0  0  0  0
    2.4700    0.5536   -0.0459 C   0  0  0  0  0  0  0  0  0  0  0  0
    2.4714   -0.9197   -0.0069 C   0  0  0  0  0  0  0  0  0  0  0  0
    3.5271   -1.5426   -0.0038 O   0  0  0  0  0  0  0  0  0  0  0  0
    1.2357   -1.5506    0.0254 O   0  0  0  0  0  0  0  0  0  0  0  0
   -3.3027    1.1180    0.0122 H   0  0  0  0  0  0  0  0  0  0  0  0
   -3.3043   -1.3629    0.0780 H   0  0  0  0  0  0  0  0  0  0  0  0
   -1.1485   -2.6053    0.0836 H   0  0  0  0  0  0  0  0  0  0  0  0
   -1.1712    2.3663   -0.0479 H   0  0  0  0  0  0  0  0  0  0  0  0
    1.3647    2.3544   -0.0797 H   0  0  0  0  0  0  0  0  0  0  0  0
    3.4455    1.0235   -0.0708 H   0  0  0  0  0  0  0  0  0  0  0  0
  1  2  2  0
  2  3  1  0
  3  4  2  0
  4  5  1  0
  5  6  2  0
  5  7  1  0
  7  8  2  0
  8  9  1  0
  9 10  2  0
  9 11  1  0
  6  1  1  0
 11  4  1  0
  1 12  1  0
  2 13  1  0
  3 14  1  0
  6 15  1  0
  7 16  1  0
  8 17  1  0
M  END
>  <Name>  (1) 
Coumarin

>  <PubChem ID>  (1) 
323

>  <CDB ID>  (1) 
CDB0001

>  <Smiles>  (1) 
C1=CC=C2C(=C1)C=CC(=O)O2

>  <Chemical class>  (1) 
Non-Oxygenated Coumarins

>  <Natural source>  (1) 
Coumarouna odorata

>  <Molecular Formula>  (1) 
C9H6O2

>  <InChI-Key>  (1) 
ZYGHJZDHTFUPRJ-UHFFFAOYSA-N

>  <Total Molweight>  (1) 
146.145

>  <cLogP>  (1) 
1.4974

>  <cLogS>  (1) 
-2.37

>  <H-Acceptors>  (1) 
2

>  <H-Donors>  (1) 
0

>  <Rotatable Bonds>  (1) 
0

>  <Polar Surface Area>  (1) 
26.3

$$$$
CDB0002
     RDKit          3D

 26 27  0  0  0  0  0  0  0  0999 V2000
   -4.2805   -0.4475   -0.1544 C   0  0  0  0  0  0  0  0  0  0  0  0
   -2.8060   -0.1798   -0.1097 C   0  0  0  0  0  0  0  0  0  0  0  0
   -1.8896   -1.2158   -0.2956 C   0  0  0  0  0  0  0  0  0  0  0  0
   -0.5185   -0.9540   -0.2185 C   0  0  0  0  0  0  0  0  0  0  0  0
   -0.0114    0.3145    0.0462 C   0  0  0  0  0  0  0  0  0  0  0  0
   -0.9424    1.3429    0.2508 C   0  0  0  0  0  0  0  0  0  0  0  0
   -2.3214    1.0992    0.1780 C   0  0  0  0  0  0  0  0  0  0  0  0
    1.4531    0.5041    0.1090 C   0  0  0  0  0  0  0  0  0  0  0  0
    2.2562   -0.5691   -0.0596 C   0  0  0  0  0  0  0  0  0  0  0  0
    1.7029   -1.9243   -0.3493 C   0  0  0  0  0  0  0  0  0  0  0  0
    2.4346   -2.8937   -0.5271 O   0  0  0  0  0  0  0  0  0  0  0  0
    0.3288   -2.0528   -0.4193 O   0  0  0  0  0  0  0  0  0  0  0  0
    3.7599   -0.5639    0.0223 C   0  0  0  0  0  0  0  0  0  0  0  0
    1.9538    1.9061    0.3477 C   0  0  0  0  0  0  0  0  0  0  0  0
   -4.8271    0.4353   -0.5024 H   0  0  0  0  0  0  0  0  0  0  0  0
   -4.6423   -0.7177    0.8424 H   0  0  0  0  0  0  0  0  0  0  0  0
   -4.5084   -1.2642   -0.8474 H   0  0  0  0  0  0  0  0  0  0  0  0
   -2.2308   -2.2277   -0.4999 H   0  0  0  0  0  0  0  0  0  0  0  0
   -0.6245    2.3570    0.4776 H   0  0  0  0  0  0  0  0  0  0  0  0
   -3.0139    1.9213    0.3491 H   0  0  0  0  0  0  0  0  0  0  0  0
    4.1928   -0.6840   -0.9763 H   0  0  0  0  0  0  0  0  0  0  0  0
    4.1734    0.3451    0.4627 H   0  0  0  0  0  0  0  0  0  0  0  0
    4.1156   -1.3854    0.6547 H   0  0  0  0  0  0  0  0  0  0  0  0
    1.6815    2.2448    1.3532 H   0  0  0  0  0  0  0  0  0  0  0  0
    3.0361    2.0104    0.2529 H   0  0  0  0  0  0  0  0  0  0  0  0
    1.5281    2.5990   -0.3871 H   0  0  0  0  0  0  0  0  0  0  0  0
  1  2  1  0
  2  3  2  0
  3  4  1  0
  4  5  2  0
  5  6  1  0
  6  7  2  0
  5  8  1  0
  8  9  2  0
  9 10  1  0
 10 11  2  0
 10 12  1  0
  9 13  1  0
  8 14  1  0
  7  2  1  0
 12  4  1  0
  1 15  1  0
  1 16  1  0
  1 17  1  0
  3 18  1  0
  6 19  1  0
  7 20  1  0
 13 21  1  0
 13 22  1  0
 13 23  1  0
 14 24  1  0
 14 25  1  0
 14 26  1  0
M  END
>  <Name>  (2) 
Trigoforin

>  <PubChem ID>  (2) 
12267346

>  <CDB ID>  (2) 
CDB0002

>  <Smiles>  (2) 
CC1=CC2=C(C=C1)C(=C(C(=O)O2)C)C

>  <Chemical class>  (2) 
Non-Oxygenated Coumarins

>  <Natural source>  (2) 
Trigonella foenumgraecum

>  <Molecular Formula>  (2) 
C12H12O2

>  <InChI-Key>  (2) 
KAFSSZHADPCOBG-UHFFFAOYSA-N

>  <Total Molweight>  (2) 
188.225

>  <cLogP>  (2) 
2.3597

>  <cLogS>  (2) 
-2.567

>  <H-Acceptors>  (2) 
2

>  <H-Donors>  (2) 
0

>  <Rotatable Bonds>  (2) 
0

>  <Polar Surface Area>  (2) 
26.3

$$$$
CDB0003
     RDKit          3D

 25 26  0  0  0  0  0  0  0  0999 V2000
    3.5633   -0.8189    0.9700 C   0  0  0  0  0  0  0  0  0  0  0  0
    2.5722   -0.3381   -0.0433 C   0  0  0  0  0  0  0  0  0  0  0  0
    2.9249    0.2836   -1.1788 C   0  0  0  0  0  0  0  0  0  0  0  0
    1.2586   -0.6725    0.2476 O   0  0  0  0  0  0  0  0  0  0  0  0
    0.2625    0.2917    0.2729 C   0  0  0  0  0  0  0  0  0  0  0  0
    0.4477    1.5758    0.6068 C   0  0  0  0  0  0  0  0  0  0  0  0
   -0.6527    2.5458    0.6485 C   0  0  0  0  0  0  0  0  0  0  0  0
   -0.4392    3.7174    0.9399 O   0  0  0  0  0  0  0  0  0  0  0  0
   -1.9221    2.0801    0.3486 O   0  0  0  0  0  0  0  0  0  0  0  0
   -2.1427    0.7282    0.0248 C   0  0  0  0  0  0  0  0  0  0  0  0
   -3.4586    0.3543   -0.2466 C   0  0  0  0  0  0  0  0  0  0  0  0
   -3.7351   -0.9707   -0.5738 C   0  0  0  0  0  0  0  0  0  0  0  0
   -2.6989   -1.9036   -0.6270 C   0  0  0  0  0  0  0  0  0  0  0  0
   -1.3833   -1.5135   -0.3526 C   0  0  0  0  0  0  0  0  0  0  0  0
   -1.0902   -0.1851   -0.0206 C   0  0  0  0  0  0  0  0  0  0  0  0
    3.3748   -0.3412    1.9368 H   0  0  0  0  0  0  0  0  0  0  0  0
    3.4794   -1.9029    1.0976 H   0  0  0  0  0  0  0  0  0  0  0  0
    4.5938   -0.5924    0.6774 H   0  0  0  0  0  0  0  0  0  0  0  0
    3.9631    0.5042   -1.4047 H   0  0  0  0  0  0  0  0  0  0  0  0
    2.1843    0.5732   -1.9173 H   0  0  0  0  0  0  0  0  0  0  0  0
    1.4195    1.9725    0.8705 H   0  0  0  0  0  0  0  0  0  0  0  0
   -4.2581    1.0883   -0.2030 H   0  0  0  0  0  0  0  0  0  0  0  0
   -4.7559   -1.2774   -0.7877 H   0  0  0  0  0  0  0  0  0  0  0  0
   -2.9136   -2.9386   -0.8832 H   0  0  0  0  0  0  0  0  0  0  0  0
   -0.5937   -2.2602   -0.4029 H   0  0  0  0  0  0  0  0  0  0  0  0
  1  2  1  0
  2  3  2  0
  2  4  1  0
  4  5  1  0
  5  6  2  0
  6  7  1  0
  7  8  2  0
  7  9  1  0
  9 10  1  0
 10 11  2  0
 11 12  1  0
 12 13  2  0
 13 14  1  0
 14 15  2  0
 15  5  1  0
 15 10  1  0
  1 16  1  0
  1 17  1  0
  1 18  1  0
  3 19  1  0
  3 20  1  0
  6 21  1  0
 11 22  1  0
 12 23  1  0
 13 24  1  0
 14 25  1  0
M  END
>  <Name>  (3) 
Setarin

>  <PubChem ID>  (3) 
131752308

>  <CDB ID>  (3) 
CDB0003

>  <Smiles>  (3) 
CC(=C)OC1=CC(=O)OC2=CC=CC=C21

>  <Chemical class>  (3) 
4-Oxygenated Coumarins

>  <Natural source>  (3) 
Setaria italica

>  <Molecular Formula>  (3) 
C12H10O3

>  <InChI-Key>  (3) 
UUTFFHNHMRSARV-UHFFFAOYSA-N

>  <Total Molweight>  (3) 
202.208

>  <cLogP>  (3) 
2.9783

>  <cLogS>  (3) 
-2.978

>  <H-Acceptors>  (3) 
3

>  <H-Donors>  (3) 
0

>  <Rotatable Bonds>  (3) 
2

>  <Polar Surface Area>  (3) 
35.53

$$$$
CDB0004
     RDKit          3D

 58 61  0  0  0  0  0  0  0  0999 V2000
   -4.7830    0.5213    0.6886 C   0  0  0  0  0  0  0  0  0  0  0  0
   -3.7433   -0.6048    0.4368 C   0  0  0  0  0  0  0  0  0  0  0  0
   -2.4973   -0.0841   -0.4013 C   0  0  0  0  0  0  0  0  0  0  0  0
   -2.1026    1.3831   -0.0889 C   0  0  0  0  0  0  0  0  0  0  0  0
   -1.1667    1.9636   -1.1590 C   0  0  0  0  0  0  0  0  0  0  0  0
   -0.2005    0.9375   -1.6957 C   0  0  0  0  0  0  0  0  0  0  0  0
    0.2691    1.0329   -2.9504 C   0  0  0  0  0  0  0  0  0  0  0  0
    0.1272   -0.1527   -0.6855 C   0  0  0  0  0  0  0  0  0  0  0  0
   -1.1863   -1.0067   -0.3738 C   0  0  0  0  0  0  0  0  0  0  0  0
   -0.9704   -1.6596    1.0197 C   0  0  0  0  0  0  0  0  0  0  0  0
   -2.2185   -2.2471    1.6628 C   0  0  0  0  0  0  0  0  0  0  0  0
   -3.3182   -1.2006    1.7997 C   0  0  0  0  0  0  0  0  0  0  0  0
   -2.8526   -0.1617    2.6627 O   0  0  0  0  0  0  0  0  0  0  0  0
   -1.3283   -2.1203   -1.4415 C   0  0  0  0  0  0  0  0  0  0  0  0
    1.3842   -1.0053   -1.0093 C   0  0  0  0  0  0  0  0  0  0  0  0
    2.5762   -0.2088   -1.0394 O   0  0  0  0  0  0  0  0  0  0  0  0
    3.2371    0.1031    0.1254 C   0  0  0  0  0  0  0  0  0  0  0  0
    2.9350   -0.3198    1.3605 C   0  0  0  0  0  0  0  0  0  0  0  0
    3.7089    0.0677    2.5483 C   0  0  0  0  0  0  0  0  0  0  0  0
    3.3903   -0.3507    3.6564 O   0  0  0  0  0  0  0  0  0  0  0  0
    4.7933    0.9046    2.3596 O   0  0  0  0  0  0  0  0  0  0  0  0
    5.1294    1.3681    1.0752 C   0  0  0  0  0  0  0  0  0  0  0  0
    6.2349    2.2147    0.9856 C   0  0  0  0  0  0  0  0  0  0  0  0
    6.6144    2.7098   -0.2592 C   0  0  0  0  0  0  0  0  0  0  0  0
    5.8884    2.3566   -1.3965 C   0  0  0  0  0  0  0  0  0  0  0  0
    4.7822    1.5061   -1.2905 C   0  0  0  0  0  0  0  0  0  0  0  0
    4.3884    0.9972   -0.0459 C   0  0  0  0  0  0  0  0  0  0  0  0
   -4.5284   -1.6782   -0.3640 C   0  0  0  0  0  0  0  0  0  0  0  0
   -4.4032    1.3094    1.3462 H   0  0  0  0  0  0  0  0  0  0  0  0
   -5.0987    0.9823   -0.2543 H   0  0  0  0  0  0  0  0  0  0  0  0
   -5.6820    0.1251    1.1764 H   0  0  0  0  0  0  0  0  0  0  0  0
   -2.8431   -0.0542   -1.4465 H   0  0  0  0  0  0  0  0  0  0  0  0
   -1.6277    1.4423    0.8977 H   0  0  0  0  0  0  0  0  0  0  0  0
   -2.9697    2.0481   -0.0567 H   0  0  0  0  0  0  0  0  0  0  0  0
   -0.6111    2.8043   -0.7267 H   0  0  0  0  0  0  0  0  0  0  0  0
   -1.7762    2.3657   -1.9785 H   0  0  0  0  0  0  0  0  0  0  0  0
   -0.0266    1.8537   -3.5982 H   0  0  0  0  0  0  0  0  0  0  0  0
    0.9639    0.3170   -3.3747 H   0  0  0  0  0  0  0  0  0  0  0  0
    0.3881    0.4012    0.2281 H   0  0  0  0  0  0  0  0  0  0  0  0
   -0.2172   -2.4541    0.9555 H   0  0  0  0  0  0  0  0  0  0  0  0
   -0.5563   -0.9152    1.7123 H   0  0  0  0  0  0  0  0  0  0  0  0
   -1.9427   -2.6131    2.6600 H   0  0  0  0  0  0  0  0  0  0  0  0
   -2.5644   -3.1192    1.1003 H   0  0  0  0  0  0  0  0  0  0  0  0
   -4.1871   -1.6548    2.2922 H   0  0  0  0  0  0  0  0  0  0  0  0
   -2.6674   -0.5596    3.5309 H   0  0  0  0  0  0  0  0  0  0  0  0
   -0.4676   -2.7970   -1.4426 H   0  0  0  0  0  0  0  0  0  0  0  0
   -1.4195   -1.6958   -2.4470 H   0  0  0  0  0  0  0  0  0  0  0  0
   -2.1933   -2.7588   -1.2762 H   0  0  0  0  0  0  0  0  0  0  0  0
    1.2956   -1.4529   -2.0053 H   0  0  0  0  0  0  0  0  0  0  0  0
    1.5131   -1.8488   -0.3240 H   0  0  0  0  0  0  0  0  0  0  0  0
    2.1049   -0.9754    1.5797 H   0  0  0  0  0  0  0  0  0  0  0  0
    6.7921    2.4856    1.8777 H   0  0  0  0  0  0  0  0  0  0  0  0
    7.4728    3.3712   -0.3441 H   0  0  0  0  0  0  0  0  0  0  0  0
    6.1806    2.7437   -2.3697 H   0  0  0  0  0  0  0  0  0  0  0  0
    4.2297    1.2481   -2.1916 H   0  0  0  0  0  0  0  0  0  0  0  0
   -4.7710   -1.3209   -1.3711 H   0  0  0  0  0  0  0  0  0  0  0  0
   -4.0013   -2.6255   -0.4612 H   0  0  0  0  0  0  0  0  0  0  0  0
   -5.4776   -1.9186    0.1310 H   0  0  0  0  0  0  0  0  0  0  0  0
  1  2  1  0
  2  3  1  0
  3  4  1  0
  4  5  1  0
  5  6  1  0
  6  7  2  0
  6  8  1  0
  8  9  1  0
  9 10  1  0
 10 11  1  0
 11 12  1  0
 12 13  1  0
  9 14  1  0
  8 15  1  0
 15 16  1  0
 16 17  1  0
 17 18  2  0
 18 19  1  0
 19 20  2  0
 19 21  1  0
 21 22  1  0
 22 23  2  0
 23 24  1  0
 24 25  2  0
 25 26  1  0
 26 27  2  0
  2 28  1  0
 12  2  1  0
  9  3  1  0
 27 17  1  0
 27 22  1  0
  1 29  1  0
  1 30  1  0
  1 31  1  0
  3 32  1  0
  4 33  1  0
  4 34  1  0
  5 35  1  0
  5 36  1  0
  7 37  1  0
  7 38  1  0
  8 39  1  0
 10 40  1  0
 10 41  1  0
 11 42  1  0
 11 43  1  0
 12 44  1  0
 13 45  1  0
 14 46  1  0
 14 47  1  0
 14 48  1  0
 15 49  1  0
 15 50  1  0
 18 51  1  0
 23 52  1  0
 24 53  1  0
 25 54  1  0
 26 55  1  0
 28 56  1  0
 28 57  1  0
 28 58  1  0
M  END
>  <Name>  (4) 
Foetidin

>  <PubChem ID>  (4) 
15945065

>  <CDB ID>  (4) 
CDB0004

>  <Smiles>  (4) 
CC1(C2CCC(=C)C(C2(CCC1O)C)COC3=CC(=O)OC4=CC=CC=C43)C

>  <Chemical class>  (4) 
4-Oxygenated Coumarins

>  <Natural source>  (4) 
Ferula assafoetida

>  <Molecular Formula>  (4) 
C24H30O4

>  <InChI-Key>  (4) 
WLYRUZQGIVCRDD-UHFFFAOYSA-N

>  <Total Molweight>  (4) 
382.498

>  <cLogP>  (4) 
4.5462

>  <cLogS>  (4) 
-4.781

>  <H-Acceptors>  (4) 
4

>  <H-Donors>  (4) 
1

>  <Rotatable Bonds>  (4) 
3

>  <Polar Surface Area>  (4) 
55.76

$$$$
CDB0005
     RDKit          3D

 57 58  0  0  0  0  0  0  0  0999 V2000
   -6.2679    0.9557    2.3182 C   0  0  0  0  0  0  0  0  0  0  0  0
   -6.0484    0.8967    0.8322 C   0  0  0  0  0  0  0  0  0  0  0  0
   -5.5825   -0.1732    0.1587 C   0  0  0  0  0  0  0  0  0  0  0  0
   -5.2232   -1.5282    0.7091 C   0  0  0  0  0  0  0  0  0  0  0  0
   -3.7093   -1.7415    0.8537 C   0  0  0  0  0  0  0  0  0  0  0  0
   -2.9496   -1.7774   -0.4590 C   0  0  0  0  0  0  0  0  0  0  0  0
   -2.1572   -0.7857   -0.9139 C   0  0  0  0  0  0  0  0  0  0  0  0
   -1.9024    0.5566   -0.2790 C   0  0  0  0  0  0  0  0  0  0  0  0
   -0.5039    0.6682    0.3461 C   0  0  0  0  0  0  0  0  0  0  0  0
    0.6452    0.6053   -0.6491 C   0  0  0  0  0  0  0  0  0  0  0  0
    1.4759   -0.4577   -0.6545 C   0  0  0  0  0  0  0  0  0  0  0  0
    2.6541   -0.7231   -1.5577 C   0  0  0  0  0  0  0  0  0  0  0  0
    3.9679   -0.6076   -0.8279 C   0  0  0  0  0  0  0  0  0  0  0  0
    4.7845    0.4529   -0.9309 C   0  0  0  0  0  0  0  0  0  0  0  0
    6.0593    0.5018   -0.2110 C   0  0  0  0  0  0  0  0  0  0  0  0
    7.0078    1.5242   -0.3497 C   0  0  0  0  0  0  0  0  0  0  0  0
    8.1964    1.4999    0.3907 C   0  0  0  0  0  0  0  0  0  0  0  0
    8.4570    0.4497    1.2701 C   0  0  0  0  0  0  0  0  0  0  0  0
    7.5367   -0.5858    1.3997 C   0  0  0  0  0  0  0  0  0  0  0  0
    6.3589   -0.5481    0.6531 C   0  0  0  0  0  0  0  0  0  0  0  0
    5.4918   -1.6452    0.7886 O   0  0  0  0  0  0  0  0  0  0  0  0
    4.3382   -1.7632    0.0256 C   0  0  0  0  0  0  0  0  0  0  0  0
    3.6517   -2.7785    0.0817 O   0  0  0  0  0  0  0  0  0  0  0  0
    4.4326    1.5465   -1.6974 O   0  0  0  0  0  0  0  0  0  0  0  0
    0.7756    1.8011   -1.5531 C   0  0  0  0  0  0  0  0  0  0  0  0
   -3.0902   -3.0560   -1.2459 C   0  0  0  0  0  0  0  0  0  0  0  0
   -6.3798    2.1737    0.1051 C   0  0  0  0  0  0  0  0  0  0  0  0
   -5.7434    1.8192    2.7414 H   0  0  0  0  0  0  0  0  0  0  0  0
   -5.9005    0.0732    2.8468 H   0  0  0  0  0  0  0  0  0  0  0  0
   -7.3355    1.0602    2.5370 H   0  0  0  0  0  0  0  0  0  0  0  0
   -5.4433   -0.0871   -0.9194 H   0  0  0  0  0  0  0  0  0  0  0  0
   -5.6533   -2.2910    0.0485 H   0  0  0  0  0  0  0  0  0  0  0  0
   -5.6959   -1.6947    1.6824 H   0  0  0  0  0  0  0  0  0  0  0  0
   -3.5416   -2.6968    1.3689 H   0  0  0  0  0  0  0  0  0  0  0  0
   -3.2975   -0.9852    1.5315 H   0  0  0  0  0  0  0  0  0  0  0  0
   -1.6340   -0.9324   -1.8591 H   0  0  0  0  0  0  0  0  0  0  0  0
   -2.0427    1.3308   -1.0430 H   0  0  0  0  0  0  0  0  0  0  0  0
   -2.6455    0.7776    0.4935 H   0  0  0  0  0  0  0  0  0  0  0  0
   -0.4354    1.6208    0.8876 H   0  0  0  0  0  0  0  0  0  0  0  0
   -0.3935   -0.1113    1.1118 H   0  0  0  0  0  0  0  0  0  0  0  0
    1.2804   -1.2649    0.0541 H   0  0  0  0  0  0  0  0  0  0  0  0
    2.5485   -1.7322   -1.9772 H   0  0  0  0  0  0  0  0  0  0  0  0
    2.6374   -0.0706   -2.4365 H   0  0  0  0  0  0  0  0  0  0  0  0
    6.8584    2.3452   -1.0453 H   0  0  0  0  0  0  0  0  0  0  0  0
    8.9244    2.2998    0.2737 H   0  0  0  0  0  0  0  0  0  0  0  0
    9.3817    0.4318    1.8414 H   0  0  0  0  0  0  0  0  0  0  0  0
    7.7370   -1.4200    2.0662 H   0  0  0  0  0  0  0  0  0  0  0  0
    4.7512    2.3479   -1.2491 H   0  0  0  0  0  0  0  0  0  0  0  0
    1.7034    1.8111   -2.1279 H   0  0  0  0  0  0  0  0  0  0  0  0
   -0.0543    1.8336   -2.2656 H   0  0  0  0  0  0  0  0  0  0  0  0
    0.7609    2.7234   -0.9626 H   0  0  0  0  0  0  0  0  0  0  0  0
   -2.7780   -3.9121   -0.6389 H   0  0  0  0  0  0  0  0  0  0  0  0
   -2.4760   -3.0548   -2.1527 H   0  0  0  0  0  0  0  0  0  0  0  0
   -4.1295   -3.2064   -1.5533 H   0  0  0  0  0  0  0  0  0  0  0  0
   -7.4316    2.4354    0.2602 H   0  0  0  0  0  0  0  0  0  0  0  0
   -6.2132    2.0936   -0.9743 H   0  0  0  0  0  0  0  0  0  0  0  0
   -5.7577    2.9945    0.4769 H   0  0  0  0  0  0  0  0  0  0  0  0
  1  2  1  0
  2  3  2  3
  3  4  1  0
  4  5  1  0
  5  6  1  0
  6  7  2  3
  7  8  1  0
  8  9  1  0
  9 10  1  0
 10 11  2  3
 11 12  1  0
 12 13  1  0
 13 14  2  0
 14 15  1  0
 15 16  2  0
 16 17  1  0
 17 18  2  0
 18 19  1  0
 19 20  2  0
 20 21  1  0
 21 22  1  0
 22 23  2  0
 14 24  1  0
 10 25  1  0
  6 26  1  0
  2 27  1  0
 22 13  1  0
 20 15  1  0
  1 28  1  0
  1 29  1  0
  1 30  1  0
  3 31  1  0
  4 32  1  0
  4 33  1  0
  5 34  1  0
  5 35  1  0
  7 36  1  0
  8 37  1  0
  8 38  1  0
  9 39  1  0
  9 40  1  0
 11 41  1  0
 12 42  1  0
 12 43  1  0
 16 44  1  0
 17 45  1  0
 18 46  1  0
 19 47  1  0
 24 48  1  0
 25 49  1  0
 25 50  1  0
 25 51  1  0
 26 52  1  0
 26 53  1  0
 26 54  1  0
 27 55  1  0
 27 56  1  0
 27 57  1  0
M  END
>  <Name>  (5) 
Ferulenol

>  <PubChem ID>  (5) 
54679300

>  <CDB ID>  (5) 
CDB0005

>  <Smiles>  (5) 
CC(=CCCC(=CCCC(=CCC1=C(C2=CC=CC=C2OC1=O)O)C)C)C

>  <Chemical class>  (5) 
4-Oxygenated Coumarins

>  <Natural source>  (5) 
Ferula communis

>  <Molecular Formula>  (5) 
C24H30O3

>  <InChI-Key>  (5) 
NJJDBBUWWOAOLD-UHFFFAOYSA-N

>  <Total Molweight>  (5) 
366.499

>  <cLogP>  (5) 
7.6164

>  <cLogS>  (5) 
-4.685

>  <H-Acceptors>  (5) 
3

>  <H-Donors>  (5) 
1

>  <Rotatable Bonds>  (5) 
8

>  <Polar Surface Area>  (5) 
46.53

$$$$
CDB0006
     RDKit          3D

 41 43  0  0  0  0  0  0  0  0999 V2000
    6.1382    1.6556    0.3472 C   0  0  0  0  0  0  0  0  0  0  0  0
    4.8917    0.9368   -0.0981 C   0  0  0  0  0  0  0  0  0  0  0  0
    4.5839    0.8731   -1.2848 O   0  0  0  0  0  0  0  0  0  0  0  0
    4.0367    0.3505    0.9784 C   0  0  0  0  0  0  0  0  0  0  0  0
    3.0171   -0.5074    0.8063 C   0  0  0  0  0  0  0  0  0  0  0  0
    2.5237   -1.1233   -0.4769 C   0  0  0  0  0  0  0  0  0  0  0  0
    1.2218   -0.5550   -1.1098 C   0  0  0  0  0  0  0  0  0  0  0  0
    1.2246    0.9754   -1.2281 C   0  0  0  0  0  0  0  0  0  0  0  0
   -0.0642   -1.0817   -0.4117 C   0  0  0  0  0  0  0  0  0  0  0  0
   -0.2126   -0.7534    1.0880 C   0  0  0  0  0  0  0  0  0  0  0  0
   -1.6666   -0.5494    1.1729 C   0  0  0  0  0  0  0  0  0  0  0  0
   -2.1674   -0.4503   -0.0467 C   0  0  0  0  0  0  0  0  0  0  0  0
   -1.2622   -0.5708   -1.0847 O   0  0  0  0  0  0  0  0  0  0  0  0
   -3.5709   -0.1962   -0.2744 C   0  0  0  0  0  0  0  0  0  0  0  0
   -4.1491   -0.0707   -1.5371 C   0  0  0  0  0  0  0  0  0  0  0  0
   -5.5215    0.1731   -1.6525 C   0  0  0  0  0  0  0  0  0  0  0  0
   -6.3181    0.2915   -0.5090 C   0  0  0  0  0  0  0  0  0  0  0  0
   -5.7483    0.1671    0.7575 C   0  0  0  0  0  0  0  0  0  0  0  0
   -4.3812   -0.0752    0.8591 C   0  0  0  0  0  0  0  0  0  0  0  0
   -3.8351   -0.1947    2.1631 O   0  0  0  0  0  0  0  0  0  0  0  0
   -2.4758   -0.4267    2.3757 C   0  0  0  0  0  0  0  0  0  0  0  0
   -1.9846   -0.5195    3.4937 O   0  0  0  0  0  0  0  0  0  0  0  0
    1.1896   -1.0693   -2.4640 O   0  0  0  0  0  0  0  0  0  0  0  0
    5.9298    2.7249    0.4320 H   0  0  0  0  0  0  0  0  0  0  0  0
    6.9312    1.4887   -0.3875 H   0  0  0  0  0  0  0  0  0  0  0  0
    6.4891    1.2723    1.3093 H   0  0  0  0  0  0  0  0  0  0  0  0
    4.2934    0.6643    1.9866 H   0  0  0  0  0  0  0  0  0  0  0  0
    2.5147   -0.8493    1.7098 H   0  0  0  0  0  0  0  0  0  0  0  0
    3.3213   -1.1182   -1.2288 H   0  0  0  0  0  0  0  0  0  0  0  0
    2.3766   -2.1968   -0.2901 H   0  0  0  0  0  0  0  0  0  0  0  0
    1.2369    1.4727   -0.2546 H   0  0  0  0  0  0  0  0  0  0  0  0
    2.0895    1.3221   -1.8028 H   0  0  0  0  0  0  0  0  0  0  0  0
    0.3464    1.3284   -1.7805 H   0  0  0  0  0  0  0  0  0  0  0  0
   -0.1061   -2.1734   -0.5458 H   0  0  0  0  0  0  0  0  0  0  0  0
    0.3031    0.1648    1.3818 H   0  0  0  0  0  0  0  0  0  0  0  0
    0.1414   -1.5812    1.7093 H   0  0  0  0  0  0  0  0  0  0  0  0
   -3.5397   -0.1620   -2.4336 H   0  0  0  0  0  0  0  0  0  0  0  0
   -5.9707    0.2704   -2.6383 H   0  0  0  0  0  0  0  0  0  0  0  0
   -7.3842    0.4807   -0.6087 H   0  0  0  0  0  0  0  0  0  0  0  0
   -6.3606    0.2579    1.6495 H   0  0  0  0  0  0  0  0  0  0  0  0
    1.9181   -0.6458   -2.9545 H   0  0  0  0  0  0  0  0  0  0  0  0
  1  2  1  0
  2  3  2  0
  2  4  1  0
  4  5  2  3
  5  6  1  0
  6  7  1  0
  7  8  1  0
  7  9  1  0
  9 10  1  0
 10 11  1  0
 11 12  2  0
 12 13  1  0
 12 14  1  0
 14 15  2  0
 15 16  1  0
 16 17  2  0
 17 18  1  0
 18 19  2  0
 19 20  1  0
 20 21  1  0
 21 22  2  0
  7 23  1  0
 13  9  1  0
 21 11  1  0
 19 14  1  0
  1 24  1  0
  1 25  1  0
  1 26  1  0
  4 27  1  0
  5 28  1  0
  6 29  1  0
  6 30  1  0
  8 31  1  0
  8 32  1  0
  8 33  1  0
  9 34  1  0
 10 35  1  0
 10 36  1  0
 15 37  1  0
 16 38  1  0
 17 39  1  0
 18 40  1  0
 23 41  1  0
M  END
>  <Name>  (6) 
Fercoprolone

>  <PubChem ID>  (6) 
14630584

>  <CDB ID>  (6) 
CDB0006

>  <Smiles>  (6) 
CC(=O)C=CCC(C)(C1CC2=C(O1)C3=CC=CC=C3OC2=O)O

>  <Chemical class>  (6) 
4-Oxygenated Coumarins

>  <Natural source>  (6) 
Ferula communis ssp. communis

>  <Molecular Formula>  (6) 
C18H18O5

>  <InChI-Key>  (6) 
IVEPSWGFYBYEJL-UHFFFAOYSA-N

>  <Total Molweight>  (6) 
314.336

>  <cLogP>  (6) 
2.2673

>  <cLogS>  (6) 
-3.133

>  <H-Acceptors>  (6) 
5

>  <H-Donors>  (6) 
1

>  <Rotatable Bonds>  (6) 
4

>  <Polar Surface Area>  (6) 
72.83

$$$$
CDB0007
     RDKit          3D

 59 61  0  0  0  0  0  0  0  0999 V2000
    4.5973    1.4732   -1.9248 C   0  0  0  0  0  0  0  0  0  0  0  0
    5.0739    1.0338   -0.5657 C   0  0  0  0  0  0  0  0  0  0  0  0
    6.2125    1.5192   -0.0408 C   0  0  0  0  0  0  0  0  0  0  0  0
    4.2149    0.0366    0.1866 C   0  0  0  0  0  0  0  0  0  0  0  0
    4.0857   -1.3018   -0.5549 C   0  0  0  0  0  0  0  0  0  0  0  0
    3.5860   -2.4836    0.2934 C   0  0  0  0  0  0  0  0  0  0  0  0
    2.3657   -2.2577    1.1544 C   0  0  0  0  0  0  0  0  0  0  0  0
    1.0981   -2.1842    0.7038 C   0  0  0  0  0  0  0  0  0  0  0  0
    0.5949   -2.3038   -0.7047 C   0  0  0  0  0  0  0  0  0  0  0  0
    0.4243   -0.9875   -1.4782 C   0  0  0  0  0  0  0  0  0  0  0  0
   -0.4090    0.1732   -0.8735 C   0  0  0  0  0  0  0  0  0  0  0  0
   -0.1961    1.4138   -1.7649 C   0  0  0  0  0  0  0  0  0  0  0  0
   -1.9276   -0.1609   -0.7900 C   0  0  0  0  0  0  0  0  0  0  0  0
   -2.3512   -1.0949    0.3639 C   0  0  0  0  0  0  0  0  0  0  0  0
   -3.6654   -0.5252    0.7005 C   0  0  0  0  0  0  0  0  0  0  0  0
   -3.7926    0.6540    0.1165 C   0  0  0  0  0  0  0  0  0  0  0  0
   -2.7276    1.0610   -0.6645 O   0  0  0  0  0  0  0  0  0  0  0  0
   -4.9637    1.4774    0.3099 C   0  0  0  0  0  0  0  0  0  0  0  0
   -5.1423    2.7345   -0.2669 C   0  0  0  0  0  0  0  0  0  0  0  0
   -6.3161    3.4537   -0.0189 C   0  0  0  0  0  0  0  0  0  0  0  0
   -7.3126    2.9199    0.8046 C   0  0  0  0  0  0  0  0  0  0  0  0
   -7.1418    1.6643    1.3863 C   0  0  0  0  0  0  0  0  0  0  0  0
   -5.9689    0.9588    1.1321 C   0  0  0  0  0  0  0  0  0  0  0  0
   -5.8286   -0.3142    1.7417 O   0  0  0  0  0  0  0  0  0  0  0  0
   -4.6885   -1.0997    1.5608 C   0  0  0  0  0  0  0  0  0  0  0  0
   -4.5562   -2.2009    2.0797 O   0  0  0  0  0  0  0  0  0  0  0  0
    0.0923    0.5318    0.4181 O   0  0  0  0  0  0  0  0  0  0  0  0
    2.6424   -2.1259    2.6324 C   0  0  0  0  0  0  0  0  0  0  0  0
    2.9327    0.6406    0.3689 O   0  0  0  0  0  0  0  0  0  0  0  0
    3.5988    1.9166   -1.8601 H   0  0  0  0  0  0  0  0  0  0  0  0
    5.2605    2.2247   -2.3669 H   0  0  0  0  0  0  0  0  0  0  0  0
    4.5590    0.6246   -2.6146 H   0  0  0  0  0  0  0  0  0  0  0  0
    6.5673    1.2134    0.9392 H   0  0  0  0  0  0  0  0  0  0  0  0
    6.8261    2.2365   -0.5787 H   0  0  0  0  0  0  0  0  0  0  0  0
    4.6379   -0.1443    1.1818 H   0  0  0  0  0  0  0  0  0  0  0  0
    5.0661   -1.5914   -0.9565 H   0  0  0  0  0  0  0  0  0  0  0  0
    3.4254   -1.1907   -1.4195 H   0  0  0  0  0  0  0  0  0  0  0  0
    3.4040   -3.3379   -0.3714 H   0  0  0  0  0  0  0  0  0  0  0  0
    4.4144   -2.8098    0.9370 H   0  0  0  0  0  0  0  0  0  0  0  0
    0.3148   -2.0167    1.4421 H   0  0  0  0  0  0  0  0  0  0  0  0
   -0.3577   -2.8440   -0.6848 H   0  0  0  0  0  0  0  0  0  0  0  0
    1.2680   -2.9498   -1.2818 H   0  0  0  0  0  0  0  0  0  0  0  0
    0.0129   -1.2358   -2.4662 H   0  0  0  0  0  0  0  0  0  0  0  0
    1.4296   -0.6018   -1.6752 H   0  0  0  0  0  0  0  0  0  0  0  0
    0.8707    1.6498   -1.8581 H   0  0  0  0  0  0  0  0  0  0  0  0
   -0.6569    2.3062   -1.3267 H   0  0  0  0  0  0  0  0  0  0  0  0
   -0.6045    1.2622   -2.7694 H   0  0  0  0  0  0  0  0  0  0  0  0
   -2.2375   -0.6079   -1.7465 H   0  0  0  0  0  0  0  0  0  0  0  0
   -1.6949   -1.0297    1.2348 H   0  0  0  0  0  0  0  0  0  0  0  0
   -2.4138   -2.1347    0.0328 H   0  0  0  0  0  0  0  0  0  0  0  0
   -4.3732    3.1611   -0.9063 H   0  0  0  0  0  0  0  0  0  0  0  0
   -6.4530    4.4345   -0.4683 H   0  0  0  0  0  0  0  0  0  0  0  0
   -8.2214    3.4863    0.9928 H   0  0  0  0  0  0  0  0  0  0  0  0
   -7.9099    1.2439    2.0283 H   0  0  0  0  0  0  0  0  0  0  0  0
    1.0745    0.5039    0.3737 H   0  0  0  0  0  0  0  0  0  0  0  0
    1.7303   -1.9581    3.2150 H   0  0  0  0  0  0  0  0  0  0  0  0
    3.1121   -3.0395    3.0114 H   0  0  0  0  0  0  0  0  0  0  0  0
    3.3138   -1.2839    2.8250 H   0  0  0  0  0  0  0  0  0  0  0  0
    3.1041    1.4823    0.8307 H   0  0  0  0  0  0  0  0  0  0  0  0
  1  2  1  0
  2  3  2  0
  2  4  1  0
  4  5  1  0
  5  6  1  0
  6  7  1  0
  7  8  2  3
  8  9  1  0
  9 10  1  0
 10 11  1  0
 11 12  1  0
 11 13  1  0
 13 14  1  0
 14 15  1  0
 15 16  2  0
 16 17  1  0
 16 18  1  0
 18 19  2  0
 19 20  1  0
 20 21  2  0
 21 22  1  0
 22 23  2  0
 23 24  1  0
 24 25  1  0
 25 26  2  0
 11 27  1  0
  7 28  1  0
  4 29  1  0
 17 13  1  0
 25 15  1  0
 23 18  1  0
  1 30  1  0
  1 31  1  0
  1 32  1  0
  3 33  1  0
  3 34  1  0
  4 35  1  0
  5 36  1  0
  5 37  1  0
  6 38  1  0
  6 39  1  0
  8 40  1  0
  9 41  1  0
  9 42  1  0
 10 43  1  0
 10 44  1  0
 12 45  1  0
 12 46  1  0
 12 47  1  0
 13 48  1  0
 14 49  1  0
 14 50  1  0
 19 51  1  0
 20 52  1  0
 21 53  1  0
 22 54  1  0
 27 55  1  0
 28 56  1  0
 28 57  1  0
 28 58  1  0
 29 59  1  0
M  END
>  <Name>  (7) 
Fercoprenol

>  <PubChem ID>  (7) 
14630581

>  <CDB ID>  (7) 
CDB0007

>  <Smiles>  (7) 
CC(=C)C(CCC(=CCCC(C)(C1CC2=C(O1)C3=CC=CC=C3OC2=O)O)C)O

>  <Chemical class>  (7) 
4-Oxygenated Coumarins

>  <Natural source>  (7) 
Ferula communis ssp. communis

>  <Molecular Formula>  (7) 
C24H30O5

>  <InChI-Key>  (7) 
RKKVQLIIGOFPJB-UHFFFAOYSA-N

>  <Total Molweight>  (7) 
398.497

>  <cLogP>  (7) 
5.1434

>  <cLogS>  (7) 
-4.349

>  <H-Acceptors>  (7) 
5

>  <H-Donors>  (7) 
2

>  <Rotatable Bonds>  (7) 
8

>  <Polar Surface Area>  (7) 
75.99

$$$$
CDB0008
     RDKit          3D

 55 57  0  0  0  0  0  0  0  0999 V2000
    6.8799   -1.4608   -0.2263 C   0  0  0  0  0  0  0  0  0  0  0  0
    6.4018   -0.3550    0.6735 C   0  0  0  0  0  0  0  0  0  0  0  0
    7.4175    0.7300    0.9185 C   0  0  0  0  0  0  0  0  0  0  0  0
    5.1758   -0.2862    1.2278 C   0  0  0  0  0  0  0  0  0  0  0  0
    4.0602   -1.2898    1.1144 C   0  0  0  0  0  0  0  0  0  0  0  0
    3.0283   -0.9536    0.0282 C   0  0  0  0  0  0  0  0  0  0  0  0
    2.1824    0.2779    0.3156 C   0  0  0  0  0  0  0  0  0  0  0  0
    2.6553    1.5427   -0.3494 C   0  0  0  0  0  0  0  0  0  0  0  0
    1.0780    0.1652    1.0818 C   0  0  0  0  0  0  0  0  0  0  0  0
    0.0998    1.2351    1.4755 C   0  0  0  0  0  0  0  0  0  0  0  0
   -1.3615    0.9075    1.1388 C   0  0  0  0  0  0  0  0  0  0  0  0
   -1.8064    0.9719   -0.3450 C   0  0  1  0  0  0  0  0  0  0  0  0
   -1.4826    2.3323   -0.9756 C   0  0  0  0  0  0  0  0  0  0  0  0
   -1.1906   -0.1231   -1.1884 C   0  0  0  0  0  0  0  0  0  0  0  0
   -1.8999   -1.1592   -1.6499 C   0  0  0  0  0  0  0  0  0  0  0  0
   -3.3099   -1.2515   -1.3508 C   0  0  0  0  0  0  0  0  0  0  0  0
   -3.9096   -0.2299   -0.7194 C   0  0  0  0  0  0  0  0  0  0  0  0
   -3.2606    0.9143   -0.3052 O   0  0  0  0  0  0  0  0  0  0  0  0
   -5.3437   -0.2747   -0.4371 C   0  0  0  0  0  0  0  0  0  0  0  0
   -6.0327    0.7573    0.2118 C   0  0  0  0  0  0  0  0  0  0  0  0
   -7.4067    0.6523    0.4548 C   0  0  0  0  0  0  0  0  0  0  0  0
   -8.1064   -0.4854    0.0519 C   0  0  0  0  0  0  0  0  0  0  0  0
   -7.4338   -1.5192   -0.5946 C   0  0  0  0  0  0  0  0  0  0  0  0
   -6.0643   -1.3988   -0.8294 C   0  0  0  0  0  0  0  0  0  0  0  0
   -5.4357   -2.4706   -1.4861 O   0  0  0  0  0  0  0  0  0  0  0  0
   -4.0775   -2.4522   -1.7753 C   0  0  0  0  0  0  0  0  0  0  0  0
   -3.5429   -3.3932   -2.3554 O   0  0  0  0  0  0  0  0  0  0  0  0
    7.2616   -1.0435   -1.1644 H   0  0  0  0  0  0  0  0  0  0  0  0
    7.6891   -2.0169    0.2580 H   0  0  0  0  0  0  0  0  0  0  0  0
    6.0944   -2.1721   -0.4923 H   0  0  0  0  0  0  0  0  0  0  0  0
    7.0364    1.5146    1.5807 H   0  0  0  0  0  0  0  0  0  0  0  0
    7.7033    1.2029   -0.0267 H   0  0  0  0  0  0  0  0  0  0  0  0
    8.3152    0.3098    1.3837 H   0  0  0  0  0  0  0  0  0  0  0  0
    4.9341    0.5739    1.8524 H   0  0  0  0  0  0  0  0  0  0  0  0
    4.4628   -2.2903    0.9216 H   0  0  0  0  0  0  0  0  0  0  0  0
    3.5655   -1.3643    2.0914 H   0  0  0  0  0  0  0  0  0  0  0  0
    2.3609   -1.8191   -0.0845 H   0  0  0  0  0  0  0  0  0  0  0  0
    3.5241   -0.8467   -0.9453 H   0  0  0  0  0  0  0  0  0  0  0  0
    2.0208    2.4069   -0.1457 H   0  0  0  0  0  0  0  0  0  0  0  0
    2.6765    1.4077   -1.4361 H   0  0  0  0  0  0  0  0  0  0  0  0
    3.6644    1.8012   -0.0164 H   0  0  0  0  0  0  0  0  0  0  0  0
    0.8489   -0.8161    1.5010 H   0  0  0  0  0  0  0  0  0  0  0  0
    0.1711    1.3344    2.5670 H   0  0  0  0  0  0  0  0  0  0  0  0
    0.3620    2.2185    1.0805 H   0  0  0  0  0  0  0  0  0  0  0  0
   -1.6187   -0.0799    1.5486 H   0  0  0  0  0  0  0  0  0  0  0  0
   -1.9894    1.6088    1.7081 H   0  0  0  0  0  0  0  0  0  0  0  0
   -0.4071    2.4913   -1.1019 H   0  0  0  0  0  0  0  0  0  0  0  0
   -1.8848    3.1498   -0.3658 H   0  0  0  0  0  0  0  0  0  0  0  0
   -1.9542    2.4256   -1.9617 H   0  0  0  0  0  0  0  0  0  0  0  0
   -0.1334   -0.0598   -1.4272 H   0  0  0  0  0  0  0  0  0  0  0  0
   -1.4367   -1.9362   -2.2519 H   0  0  0  0  0  0  0  0  0  0  0  0
   -5.5080    1.6539    0.5343 H   0  0  0  0  0  0  0  0  0  0  0  0
   -7.9298    1.4613    0.9593 H   0  0  0  0  0  0  0  0  0  0  0  0
   -9.1739   -0.5644    0.2416 H   0  0  0  0  0  0  0  0  0  0  0  0
   -7.9693   -2.4090   -0.9130 H   0  0  0  0  0  0  0  0  0  0  0  0
  1  2  1  0
  2  3  1  0
  2  4  2  3
  4  5  1  0
  5  6  1  0
  6  7  1  0
  7  8  1  0
  7  9  2  3
  9 10  1  0
 10 11  1  0
 12 11  1  1
 12 13  1  0
 12 14  1  0
 14 15  2  0
 15 16  1  0
 16 17  2  0
 17 18  1  0
 17 19  1  0
 19 20  2  0
 20 21  1  0
 21 22  2  0
 22 23  1  0
 23 24  2  0
 24 25  1  0
 25 26  1  0
 26 27  2  0
 18 12  1  0
 24 19  1  0
 26 16  1  0
  1 28  1  0
  1 29  1  0
  1 30  1  0
  3 31  1  0
  3 32  1  0
  3 33  1  0
  4 34  1  0
  5 35  1  0
  5 36  1  0
  6 37  1  0
  6 38  1  0
  8 39  1  0
  8 40  1  0
  8 41  1  0
  9 42  1  0
 10 43  1  0
 10 44  1  0
 11 45  1  0
 11 46  1  0
 13 47  1  0
 13 48  1  0
 13 49  1  0
 14 50  1  0
 15 51  1  0
 20 52  1  0
 21 53  1  0
 22 54  1  0
 23 55  1  0
M  END
>  <Name>  (8) 
Ferprenin

>  <PubChem ID>  (8) 
5387614

>  <CDB ID>  (8) 
CDB0008

>  <Smiles>  (8) 
CC(C)=CCCC(C)=CCC[C@@]1(C)C=CC2=C(O1)C1=CC=CC=C1OC2=O

>  <Chemical class>  (8) 
4-Oxygenated Coumarins

>  <Natural source>  (8) 
Ferula communis

>  <Molecular Formula>  (8) 
C24H28O3

>  <InChI-Key>  (8) 
JQLNFODDCYXPCO-DEOSSOPVSA-N

>  <Total Molweight>  (8) 
364.483

>  <cLogP>  (8) 
6.6499

>  <cLogS>  (8) 
-4.752

>  <H-Acceptors>  (8) 
3

>  <H-Donors>  (8) 
0

>  <Rotatable Bonds>  (8) 
6

>  <Polar Surface Area>  (8) 
35.53

$$$$
CDB0009
     RDKit          3D

 28 31  0  0  0  0  0  0  0  0999 V2000
    3.6245    1.7667    0.4330 C   0  0  0  0  0  0  0  0  0  0  0  0
    4.5577    0.7323    0.3677 C   0  0  0  0  0  0  0  0  0  0  0  0
    4.1252   -0.5780    0.1855 C   0  0  0  0  0  0  0  0  0  0  0  0
    2.7593   -0.8340    0.0710 C   0  0  0  0  0  0  0  0  0  0  0  0
    1.8079    0.1766    0.1323 C   0  0  0  0  0  0  0  0  0  0  0  0
    2.2573    1.4911    0.3160 C   0  0  0  0  0  0  0  0  0  0  0  0
    0.3941   -0.1857    0.0022 C   0  0  0  0  0  0  0  0  0  0  0  0
    0.0310   -1.4692   -0.1725 C   0  0  0  0  0  0  0  0  0  0  0  0
   -1.4193   -1.7609   -0.2964 C   0  0  0  0  0  0  0  0  0  0  0  0
   -1.8750   -2.8851   -0.4579 O   0  0  0  0  0  0  0  0  0  0  0  0
   -2.3416   -0.6170   -0.2175 C   0  0  0  0  0  0  0  0  0  0  0  0
   -3.7250   -0.7996   -0.3244 C   0  0  0  0  0  0  0  0  0  0  0  0
   -4.5775    0.3027   -0.2461 C   0  0  0  0  0  0  0  0  0  0  0  0
   -4.0488    1.5809   -0.0618 C   0  0  0  0  0  0  0  0  0  0  0  0
   -2.6681    1.7582    0.0443 C   0  0  0  0  0  0  0  0  0  0  0  0
   -1.8177    0.6550   -0.0342 C   0  0  0  0  0  0  0  0  0  0  0  0
   -0.4754    0.8887    0.0762 O   0  0  0  0  0  0  0  0  0  0  0  0
    1.0415   -2.5500   -0.2385 C   0  0  0  0  0  0  0  0  0  0  0  0
    0.7634   -3.7318   -0.3959 O   0  0  0  0  0  0  0  0  0  0  0  0
    2.3751   -2.1706   -0.1113 O   0  0  0  0  0  0  0  0  0  0  0  0
    3.9605    2.7914    0.5753 H   0  0  0  0  0  0  0  0  0  0  0  0
    5.6194    0.9484    0.4587 H   0  0  0  0  0  0  0  0  0  0  0  0
    4.8431   -1.3919    0.1331 H   0  0  0  0  0  0  0  0  0  0  0  0
    1.5543    2.3195    0.3710 H   0  0  0  0  0  0  0  0  0  0  0  0
   -4.1392   -1.7959   -0.4681 H   0  0  0  0  0  0  0  0  0  0  0  0
   -5.6531    0.1636   -0.3288 H   0  0  0  0  0  0  0  0  0  0  0  0
   -4.7138    2.4395   -0.0008 H   0  0  0  0  0  0  0  0  0  0  0  0
   -2.2597    2.7552    0.1878 H   0  0  0  0  0  0  0  0  0  0  0  0
  1  2  2  0
  2  3  1  0
  3  4  2  0
  4  5  1  0
  5  6  2  0
  5  7  1  0
  7  8  2  0
  8  9  1  0
  9 10  2  0
  9 11  1  0
 11 12  2  0
 12 13  1  0
 13 14  2  0
 14 15  1  0
 15 16  2  0
 16 17  1  0
  8 18  1  0
 18 19  2  0
 18 20  1  0
  6  1  1  0
 20  4  1  0
 17  7  1  0
 16 11  1  0
  1 21  1  0
  2 22  1  0
  3 23  1  0
  6 24  1  0
 12 25  1  0
 13 26  1  0
 14 27  1  0
 15 28  1  0
M  END
>  <Name>  (9) 
Frutinone A

>  <PubChem ID>  (9) 
441965

>  <CDB ID>  (9) 
CDB0009

>  <Smiles>  (9) 
C1=CC=C2C(=C1)C3=C(C(=O)C4=CC=CC=C4O3)C(=O)O2

>  <Chemical class>  (9) 
4-Oxygenated Coumarins

>  <Natural source>  (9) 
Polygala fruticosa

>  <Molecular Formula>  (9) 
C16H8O4

>  <InChI-Key>  (9) 
RFWULRHBGYKEEZ-UHFFFAOYSA-N

>  <Total Molweight>  (9) 
264.236

>  <cLogP>  (9) 
2.7476

>  <cLogS>  (9) 
-3.714

>  <H-Acceptors>  (9) 
4

>  <H-Donors>  (9) 
0

>  <Rotatable Bonds>  (9) 
0

>  <Polar Surface Area>  (9) 
52.6

$$$$
CDB0010
     RDKit          3D

 29 32  0  0  0  0  0  0  0  0999 V2000
    3.4134    2.0872    0.6229 C   0  0  0  0  0  0  0  0  0  0  0  0
    4.4313    1.4333   -0.0706 C   0  0  0  0  0  0  0  0  0  0  0  0
    4.1431    0.2810   -0.7957 C   0  0  0  0  0  0  0  0  0  0  0  0
    2.8349   -0.2012   -0.8155 C   0  0  0  0  0  0  0  0  0  0  0  0
    1.8009    0.4295   -0.1341 C   0  0  0  0  0  0  0  0  0  0  0  0
    2.1058    1.5888    0.5918 C   0  0  0  0  0  0  0  0  0  0  0  0
    0.4570   -0.1500   -0.2125 C   0  0  0  0  0  0  0  0  0  0  0  0
    0.2363   -1.2671   -0.9294 C   0  0  0  0  0  0  0  0  0  0  0  0
   -1.1497   -1.7976   -0.9639 C   0  0  0  0  0  0  0  0  0  0  0  0
   -1.4772   -2.8035   -1.5786 O   0  0  0  0  0  0  0  0  0  0  0  0
   -2.1706   -1.0551   -0.2086 C   0  0  0  0  0  0  0  0  0  0  0  0
   -1.7926    0.0845    0.4862 C   0  0  0  0  0  0  0  0  0  0  0  0
   -0.5054    0.5476    0.4979 O   0  0  0  0  0  0  0  0  0  0  0  0
   -2.7516    0.7975    1.2064 C   0  0  0  0  0  0  0  0  0  0  0  0
   -4.0784    0.3798    1.2355 C   0  0  0  0  0  0  0  0  0  0  0  0
   -4.4563   -0.7665    0.5360 C   0  0  0  0  0  0  0  0  0  0  0  0
   -3.5035   -1.4865   -0.1875 C   0  0  0  0  0  0  0  0  0  0  0  0
   -2.4258    1.9253    1.9056 O   0  0  0  0  0  0  0  0  0  0  0  0
    1.3354   -1.9427   -1.6573 C   0  0  0  0  0  0  0  0  0  0  0  0
    1.1859   -2.9596   -2.3221 O   0  0  0  0  0  0  0  0  0  0  0  0
    2.5982   -1.3654   -1.5610 O   0  0  0  0  0  0  0  0  0  0  0  0
    3.6376    2.9881    1.1900 H   0  0  0  0  0  0  0  0  0  0  0  0
    5.4465    1.8219   -0.0453 H   0  0  0  0  0  0  0  0  0  0  0  0
    4.9281   -0.2370   -1.3399 H   0  0  0  0  0  0  0  0  0  0  0  0
    1.3371    2.1237    1.1437 H   0  0  0  0  0  0  0  0  0  0  0  0
   -4.8152    0.9448    1.8006 H   0  0  0  0  0  0  0  0  0  0  0  0
   -5.4917   -1.0990    0.5542 H   0  0  0  0  0  0  0  0  0  0  0  0
   -3.8012   -2.3808   -0.7326 H   0  0  0  0  0  0  0  0  0  0  0  0
   -1.4723    2.0789    1.7838 H   0  0  0  0  0  0  0  0  0  0  0  0
  1  2  2  0
  2  3  1  0
  3  4  2  0
  4  5  1  0
  5  6  2  0
  5  7  1  0
  7  8  2  0
  8  9  1  0
  9 10  2  0
  9 11  1  0
 11 12  1  0
 12 13  1  0
 12 14  2  0
 14 15  1  0
 15 16  2  0
 16 17  1  0
 14 18  1  0
  8 19  1  0
 19 20  2  0
 19 21  1  0
  6  1  1  0
 21  4  1  0
 13  7  1  0
 17 11  2  0
  1 22  1  0
  2 23  1  0
  3 24  1  0
  6 25  1  0
 15 26  1  0
 16 27  1  0
 17 28  1  0
 18 29  1  0
M  END
>  <Name>  (10) 
Frutinone C

>  <PubChem ID>  (10) 
14442651

>  <CDB ID>  (10) 
CDB0010

>  <Smiles>  (10) 
C1=CC=C2C(=C1)C3=C(C(=O)C4=C(O3)C(=CC=C4)O)C(=O)O2

>  <Chemical class>  (10) 
4-Oxygenated Coumarins

>  <Natural source>  (10) 
Polygala fruticosa

>  <Molecular Formula>  (10) 
C16H8O5

>  <InChI-Key>  (10) 
OXCHFCIHFMQOCE-UHFFFAOYSA-N

>  <Total Molweight>  (10) 
280.235

>  <cLogP>  (10) 
2.4019

>  <cLogS>  (10) 
-3.418

>  <H-Acceptors>  (10) 
5

>  <H-Donors>  (10) 
1

>  <Rotatable Bonds>  (10) 
0

>  <Polar Surface Area>  (10) 
72.83

$$$$
CDB0011
     RDKit          3D

 47 48  0  0  0  0  0  0  0  0999 V2000
    4.0926   -0.7010    1.2431 C   0  0  0  0  0  0  0  0  0  0  0  0
    4.3812    0.5676    0.4885 C   0  0  0  0  0  0  0  0  0  0  0  0
    5.8457    0.9091    0.3967 C   0  0  0  0  0  0  0  0  0  0  0  0
    3.4545    1.3622   -0.0838 C   0  0  0  0  0  0  0  0  0  0  0  0
    1.9588    1.1991   -0.0846 C   0  0  0  0  0  0  0  0  0  0  0  0
    1.4527    0.8736   -1.4635 C   0  0  0  0  0  0  0  0  0  0  0  0
    0.7417   -0.2055   -1.8630 C   0  0  0  0  0  0  0  0  0  0  0  0
    0.3715   -0.3268   -3.3228 C   0  0  0  0  0  0  0  0  0  0  0  0
    0.3228   -1.3430   -0.9182 C   0  0  2  0  0  0  0  0  0  0  0  0
   -0.0598   -2.6596   -1.6132 C   0  0  0  0  0  0  0  0  0  0  0  0
   -0.7669   -0.9555    0.0824 C   0  0  0  0  0  0  0  0  0  0  0  0
   -1.9034   -0.2941   -0.2016 C   0  0  0  0  0  0  0  0  0  0  0  0
   -2.2524   -0.0400   -1.5113 O   0  0  0  0  0  0  0  0  0  0  0  0
   -2.8730    0.0866    0.8409 C   0  0  0  0  0  0  0  0  0  0  0  0
   -3.9295    1.0178    0.7082 C   0  0  0  0  0  0  0  0  0  0  0  0
   -4.1493    1.8698   -0.5150 C   0  0  0  0  0  0  0  0  0  0  0  0
   -4.8331    1.1963    1.7785 C   0  0  0  0  0  0  0  0  0  0  0  0
   -4.6711    0.5188    2.9855 C   0  0  0  0  0  0  0  0  0  0  0  0
   -3.5888   -0.3314    3.1498 C   0  0  0  0  0  0  0  0  0  0  0  0
   -2.7054   -0.5209    2.0870 C   0  0  0  0  0  0  0  0  0  0  0  0
   -1.5889   -1.3277    2.3617 O   0  0  0  0  0  0  0  0  0  0  0  0
   -0.5371   -1.4458    1.4677 C   0  0  0  0  0  0  0  0  0  0  0  0
    0.5014   -2.0037    1.8061 O   0  0  0  0  0  0  0  0  0  0  0  0
    4.6352   -1.5381    0.7910 H   0  0  0  0  0  0  0  0  0  0  0  0
    3.0365   -0.9725    1.2527 H   0  0  0  0  0  0  0  0  0  0  0  0
    4.4184   -0.6013    2.2837 H   0  0  0  0  0  0  0  0  0  0  0  0
    6.0232    1.8374   -0.1565 H   0  0  0  0  0  0  0  0  0  0  0  0
    6.2688    1.0340    1.3988 H   0  0  0  0  0  0  0  0  0  0  0  0
    6.3906    0.1087   -0.1145 H   0  0  0  0  0  0  0  0  0  0  0  0
    3.7985    2.2526   -0.6100 H   0  0  0  0  0  0  0  0  0  0  0  0
    1.5141    2.1532    0.2250 H   0  0  0  0  0  0  0  0  0  0  0  0
    1.6319    0.4739    0.6606 H   0  0  0  0  0  0  0  0  0  0  0  0
    1.7032    1.6278   -2.2096 H   0  0  0  0  0  0  0  0  0  0  0  0
   -0.7006   -0.4941   -3.4522 H   0  0  0  0  0  0  0  0  0  0  0  0
    0.9129   -1.1580   -3.7856 H   0  0  0  0  0  0  0  0  0  0  0  0
    0.6223    0.5766   -3.8898 H   0  0  0  0  0  0  0  0  0  0  0  0
    1.2435   -1.5844   -0.3702 H   0  0  0  0  0  0  0  0  0  0  0  0
    0.7458   -3.0057   -2.2701 H   0  0  0  0  0  0  0  0  0  0  0  0
   -0.9708   -2.5598   -2.2133 H   0  0  0  0  0  0  0  0  0  0  0  0
   -0.2377   -3.4513   -0.8760 H   0  0  0  0  0  0  0  0  0  0  0  0
   -3.2094   -0.1888   -1.5944 H   0  0  0  0  0  0  0  0  0  0  0  0
   -4.6884    1.3073   -1.2827 H   0  0  0  0  0  0  0  0  0  0  0  0
   -4.7438    2.7586   -0.2742 H   0  0  0  0  0  0  0  0  0  0  0  0
   -3.2000    2.2403   -0.9139 H   0  0  0  0  0  0  0  0  0  0  0  0
   -5.6664    1.8912    1.6812 H   0  0  0  0  0  0  0  0  0  0  0  0
   -5.3702    0.6799    3.8021 H   0  0  0  0  0  0  0  0  0  0  0  0
   -3.4217   -0.8334    4.0986 H   0  0  0  0  0  0  0  0  0  0  0  0
  1  2  1  0
  2  3  1  0
  2  4  2  3
  4  5  1  0
  5  6  1  0
  6  7  2  3
  7  8  1  0
  7  9  1  0
  9 10  1  0
  9 11  1  0
 11 12  2  0
 12 13  1  0
 12 14  1  0
 14 15  1  0
 15 16  1  0
 15 17  2  0
 17 18  1  0
 18 19  2  0
 19 20  1  0
 20 21  1  0
 21 22  1  0
 22 23  2  0
 22 11  1  0
 20 14  2  0
  1 24  1  0
  1 25  1  0
  1 26  1  0
  3 27  1  0
  3 28  1  0
  3 29  1  0
  4 30  1  0
  5 31  1  0
  5 32  1  0
  6 33  1  0
  8 34  1  0
  8 35  1  0
  8 36  1  0
  9 37  1  1
 10 38  1  0
 10 39  1  0
 10 40  1  0
 13 41  1  0
 16 42  1  0
 16 43  1  0
 16 44  1  0
 17 45  1  0
 18 46  1  0
 19 47  1  0
M  END
>  <Name>  (11) 
Brachycoumarin

>  <PubChem ID>  (11) 
101317835

>  <CDB ID>  (11) 
CDB0011

>  <Smiles>  (11) 
CC(C)=CCC=C(C)[C@H](C)C1=C(O)C2=C(C)C=CC=C2OC1=O

>  <Chemical class>  (11) 
4-Oxygenated Coumarins

>  <Natural source>  (11) 
Brachyclades megalanthus

>  <Molecular Formula>  (11) 
C20H24O3

>  <InChI-Key>  (11) 
MWUPCDHWZJCKQP-HNNXBMFYSA-N

>  <Total Molweight>  (11) 
312.408

>  <cLogP>  (11) 
5.5524

>  <cLogS>  (11) 
-3.943

>  <H-Acceptors>  (11) 
3

>  <H-Donors>  (11) 
1

>  <Rotatable Bonds>  (11) 
4

>  <Polar Surface Area>  (11) 
46.53

$$$$
CDB0012
     RDKit          3D

 32 34  0  0  0  0  0  0  0  0999 V2000
   -1.6203   -1.6242    1.7357 C   0  0  0  0  0  0  0  0  0  0  0  0
   -2.3499   -0.6608    0.8397 C   0  0  0  0  0  0  0  0  0  0  0  0
   -1.6938    0.1307   -0.1221 C   0  0  0  0  0  0  0  0  0  0  0  0
   -2.4676    1.0013   -0.9093 C   0  0  0  0  0  0  0  0  0  0  0  0
   -3.8498    1.1064   -0.7717 C   0  0  0  0  0  0  0  0  0  0  0  0
   -4.4915    0.3233    0.1787 C   0  0  0  0  0  0  0  0  0  0  0  0
   -3.7490   -0.5510    0.9761 C   0  0  0  0  0  0  0  0  0  0  0  0
   -1.8786    1.8319   -1.8997 O   0  0  0  0  0  0  0  0  0  0  0  0
   -0.5096    1.8402   -2.1439 C   0  0  0  0  0  0  0  0  0  0  0  0
    0.0099    2.5522   -2.9935 O   0  0  0  0  0  0  0  0  0  0  0  0
    0.2690    0.9350   -1.3174 C   0  0  0  0  0  0  0  0  0  0  0  0
   -0.2647    0.1456   -0.3987 C   0  0  0  0  0  0  0  0  0  0  0  0
    0.6346   -0.6421    0.2991 O   0  0  0  0  0  0  0  0  0  0  0  0
    1.8816   -0.4712   -0.4319 C   0  0  0  0  0  0  0  0  0  0  0  0
    1.7296    0.7636   -1.3433 C   0  0  0  0  0  0  0  0  0  0  0  0
    3.0676   -0.3784    0.5134 C   0  0  0  0  0  0  0  0  0  0  0  0
    2.9576   -0.2644    1.8489 C   0  0  0  0  0  0  0  0  0  0  0  0
    4.4205   -0.4463   -0.1432 C   0  0  0  0  0  0  0  0  0  0  0  0
   -2.3089   -2.1461    2.4094 H   0  0  0  0  0  0  0  0  0  0  0  0
   -0.8988   -1.0919    2.3635 H   0  0  0  0  0  0  0  0  0  0  0  0
   -1.1112   -2.3896    1.1418 H   0  0  0  0  0  0  0  0  0  0  0  0
   -4.4159    1.7902   -1.3971 H   0  0  0  0  0  0  0  0  0  0  0  0
   -5.5694    0.3900    0.3030 H   0  0  0  0  0  0  0  0  0  0  0  0
   -4.2746   -1.1544    1.7148 H   0  0  0  0  0  0  0  0  0  0  0  0
    1.9964   -1.3750   -1.0470 H   0  0  0  0  0  0  0  0  0  0  0  0
    2.1202    0.5617   -2.3455 H   0  0  0  0  0  0  0  0  0  0  0  0
    2.2308    1.6513   -0.9416 H   0  0  0  0  0  0  0  0  0  0  0  0
    1.9902   -0.2215    2.3416 H   0  0  0  0  0  0  0  0  0  0  0  0
    3.8311   -0.2099    2.4917 H   0  0  0  0  0  0  0  0  0  0  0  0
    4.5584    0.3954   -0.8292 H   0  0  0  0  0  0  0  0  0  0  0  0
    5.2357   -0.4145    0.5876 H   0  0  0  0  0  0  0  0  0  0  0  0
    4.5205   -1.3777   -0.7099 H   0  0  0  0  0  0  0  0  0  0  0  0
  1  2  1  0
  2  3  1  0
  3  4  2  0
  4  5  1  0
  5  6  2  0
  6  7  1  0
  4  8  1  0
  8  9  1  0
  9 10  2  0
  9 11  1  0
 11 12  2  0
 12 13  1  0
 13 14  1  0
 14 15  1  0
 14 16  1  0
 16 17  2  0
 16 18  1  0
  7  2  2  0
 12  3  1  0
 15 11  1  0
  1 19  1  0
  1 20  1  0
  1 21  1  0
  5 22  1  0
  6 23  1  0
  7 24  1  0
 14 25  1  0
 15 26  1  0
 15 27  1  0
 17 28  1  0
 17 29  1  0
 18 30  1  0
 18 31  1  0
 18 32  1  0
M  END
>  <Name>  (12) 
Pterophyllin I

>  <PubChem ID>  (12) 
15838081

>  <CDB ID>  (12) 
CDB0012

>  <Smiles>  (12) 
CC1=C2C(=CC=C1)OC(=O)C3=C2OC(C3)C(=C)C

>  <Chemical class>  (12) 
4-Oxygenated Coumarins

>  <Natural source>  (12) 
Ekebergia pterophylla

>  <Molecular Formula>  (12) 
C15H14O3

>  <InChI-Key>  (12) 
VXCKZKCKFMIQKD-GFCCVEGCSA-N

>  <Total Molweight>  (12) 
242.273

>  <cLogP>  (12) 
3.1609

>  <cLogS>  (12) 
-3.326

>  <H-Acceptors>  (12) 
3

>  <H-Donors>  (12) 
0

>  <Rotatable Bonds>  (12) 
1

>  <Polar Surface Area>  (12) 
35.53

$$$$
CDB0013
     RDKit          3D

 33 35  0  0  0  0  0  0  0  0999 V2000
   -1.5969   -0.2836    2.4331 C   0  0  0  0  0  0  0  0  0  0  0  0
   -2.3517   -0.4538    1.1430 C   0  0  0  0  0  0  0  0  0  0  0  0
   -1.7285   -0.3958   -0.1178 C   0  0  0  0  0  0  0  0  0  0  0  0
   -2.5239   -0.5661   -1.2640 C   0  0  0  0  0  0  0  0  0  0  0  0
   -3.8973   -0.7875   -1.1961 C   0  0  0  0  0  0  0  0  0  0  0  0
   -4.5072   -0.8431    0.0501 C   0  0  0  0  0  0  0  0  0  0  0  0
   -3.7421   -0.6785    1.2075 C   0  0  0  0  0  0  0  0  0  0  0  0
   -1.9640   -0.5306   -2.5691 O   0  0  0  0  0  0  0  0  0  0  0  0
   -0.6048   -0.3279   -2.7954 C   0  0  0  0  0  0  0  0  0  0  0  0
   -0.1107   -0.3684   -3.9138 O   0  0  0  0  0  0  0  0  0  0  0  0
    0.1838   -0.0987   -1.5996 C   0  0  0  0  0  0  0  0  0  0  0  0
   -0.3144   -0.1680   -0.3730 C   0  0  0  0  0  0  0  0  0  0  0  0
    0.6087    0.0098    0.6488 O   0  0  0  0  0  0  0  0  0  0  0  0
    1.8816   -0.1762   -0.0422 C   0  0  0  0  0  0  0  0  0  0  0  0
    1.6252    0.1857   -1.5359 C   0  0  0  0  0  0  0  0  0  0  0  0
    1.8352    1.5661   -1.8314 O   0  0  0  0  0  0  0  0  0  0  0  0
    2.9958    0.6012    0.6413 C   0  0  0  0  0  0  0  0  0  0  0  0
    2.8095    1.4229    1.6899 C   0  0  0  0  0  0  0  0  0  0  0  0
    4.3731    0.3770    0.0758 C   0  0  0  0  0  0  0  0  0  0  0  0
   -1.1282    0.7046    2.4752 H   0  0  0  0  0  0  0  0  0  0  0  0
   -2.2617   -0.3611    3.3005 H   0  0  0  0  0  0  0  0  0  0  0  0
   -0.8384   -1.0655    2.5391 H   0  0  0  0  0  0  0  0  0  0  0  0
   -4.4809   -0.9155   -2.1029 H   0  0  0  0  0  0  0  0  0  0  0  0
   -5.5781   -1.0148    0.1261 H   0  0  0  0  0  0  0  0  0  0  0  0
   -4.2437   -0.7262    2.1730 H   0  0  0  0  0  0  0  0  0  0  0  0
    2.1091   -1.2499    0.0399 H   0  0  0  0  0  0  0  0  0  0  0  0
    2.2345   -0.4242   -2.2089 H   0  0  0  0  0  0  0  0  0  0  0  0
    1.5568    2.0808   -1.0521 H   0  0  0  0  0  0  0  0  0  0  0  0
    3.6377    1.9522    2.1527 H   0  0  0  0  0  0  0  0  0  0  0  0
    1.8275    1.5900    2.1233 H   0  0  0  0  0  0  0  0  0  0  0  0
    4.4247    0.7147   -0.9638 H   0  0  0  0  0  0  0  0  0  0  0  0
    4.6272   -0.6875    0.1093 H   0  0  0  0  0  0  0  0  0  0  0  0
    5.1421    0.9180    0.6376 H   0  0  0  0  0  0  0  0  0  0  0  0
  1  2  1  0
  2  3  1  0
  3  4  2  0
  4  5  1  0
  5  6  2  0
  6  7  1  0
  4  8  1  0
  8  9  1  0
  9 10  2  0
  9 11  1  0
 11 12  2  0
 12 13  1  0
 13 14  1  0
 14 15  1  0
 15 16  1  0
 14 17  1  0
 17 18  2  0
 17 19  1  0
  7  2  2  0
 12  3  1  0
 15 11  1  0
  1 20  1  0
  1 21  1  0
  1 22  1  0
  5 23  1  0
  6 24  1  0
  7 25  1  0
 14 26  1  0
 15 27  1  0
 16 28  1  0
 18 29  1  0
 18 30  1  0
 19 31  1  0
 19 32  1  0
 19 33  1  0
M  END
>  <Name>  (13) 
Pterophyllin 5

>  <PubChem ID>  (13) 
15838084

>  <CDB ID>  (13) 
CDB0013

>  <Smiles>  (13) 
CC1=C2C(=CC=C1)OC(=O)C3=C2OC(C3O)C(=C)C

>  <Chemical class>  (13) 
4-Oxygenated Coumarins

>  <Natural source>  (13) 
Ekebergia pterophylla

>  <Molecular Formula>  (13) 
C15H14O4

>  <InChI-Key>  (13) 
OIHYWGWAYOXSRB-UHFFFAOYSA-N

>  <Total Molweight>  (13) 
258.272

>  <cLogP>  (13) 
2.3088

>  <cLogS>  (13) 
-2.927

>  <H-Acceptors>  (13) 
4

>  <H-Donors>  (13) 
1

>  <Rotatable Bonds>  (13) 
1

>  <Polar Surface Area>  (13) 
55.76

$$$$
CDB0014
     RDKit          3D

 28 30  0  0  0  0  0  0  0  0999 V2000
   -1.0378   -1.0820    2.2960 C   0  0  0  0  0  0  0  0  0  0  0  0
   -1.8639   -0.3032    1.3105 C   0  0  0  0  0  0  0  0  0  0  0  0
   -1.3258    0.2472    0.1379 C   0  0  0  0  0  0  0  0  0  0  0  0
   -2.1697    0.9646   -0.7349 C   0  0  0  0  0  0  0  0  0  0  0  0
   -3.5234    1.1467   -0.4731 C   0  0  0  0  0  0  0  0  0  0  0  0
   -4.0554    0.6005    0.6897 C   0  0  0  0  0  0  0  0  0  0  0  0
   -3.2358   -0.1156    1.5705 C   0  0  0  0  0  0  0  0  0  0  0  0
   -1.6702    1.5462   -1.9446 O   0  0  0  0  0  0  0  0  0  0  0  0
   -0.3193    1.4519   -2.3557 C   0  0  0  0  0  0  0  0  0  0  0  0
    0.0768    1.9612   -3.3976 O   0  0  0  0  0  0  0  0  0  0  0  0
    0.5431    0.7177   -1.4618 C   0  0  0  0  0  0  0  0  0  0  0  0
    0.0428    0.1706   -0.3110 C   0  0  0  0  0  0  0  0  0  0  0  0
    1.0041   -0.4729    0.3854 O   0  0  0  0  0  0  0  0  0  0  0  0
    2.1701   -0.3431   -0.3317 C   0  0  0  0  0  0  0  0  0  0  0  0
    1.9207    0.3901   -1.4839 C   0  0  0  0  0  0  0  0  0  0  0  0
    3.3708   -0.9535    0.2067 C   0  0  0  0  0  0  0  0  0  0  0  0
    3.4020   -1.5790    1.2666 O   0  0  0  0  0  0  0  0  0  0  0  0
    4.6304   -0.7894   -0.6088 C   0  0  0  0  0  0  0  0  0  0  0  0
   -0.6121   -1.9712    1.8204 H   0  0  0  0  0  0  0  0  0  0  0  0
   -1.6424   -1.4259    3.1424 H   0  0  0  0  0  0  0  0  0  0  0  0
   -0.2376   -0.4562    2.7035 H   0  0  0  0  0  0  0  0  0  0  0  0
   -4.1523    1.7032   -1.1611 H   0  0  0  0  0  0  0  0  0  0  0  0
   -5.1112    0.7288    0.9173 H   0  0  0  0  0  0  0  0  0  0  0  0
   -3.6811   -0.5318    2.4734 H   0  0  0  0  0  0  0  0  0  0  0  0
    2.6371    0.6589   -2.2489 H   0  0  0  0  0  0  0  0  0  0  0  0
    4.5018   -1.2451   -1.5943 H   0  0  0  0  0  0  0  0  0  0  0  0
    5.4614   -1.2899   -0.1025 H   0  0  0  0  0  0  0  0  0  0  0  0
    4.8765    0.2712   -0.7103 H   0  0  0  0  0  0  0  0  0  0  0  0
  1  2  1  0
  2  3  1  0
  3  4  2  0
  4  5  1  0
  5  6  2  0
  6  7  1  0
  4  8  1  0
  8  9  1  0
  9 10  2  0
  9 11  1  0
 11 12  2  0
 12 13  1  0
 13 14  1  0
 14 15  2  0
 14 16  1  0
 16 17  2  0
 16 18  1  0
  7  2  2  0
 12  3  1  0
 15 11  1  0
  1 19  1  0
  1 20  1  0
  1 21  1  0
  5 22  1  0
  6 23  1  0
  7 24  1  0
 15 25  1  0
 18 26  1  0
 18 27  1  0
 18 28  1  0
M  END
>  <Name>  (14) 
Pterophyllin 4

>  <PubChem ID>  (14) 
15838083

>  <CDB ID>  (14) 
CDB0014

>  <Smiles>  (14) 
CC1=C2C(=CC=C1)OC(=O)C3=C2OC(=C3)C(=O)C

>  <Chemical class>  (14) 
4-Oxygenated Coumarins

>  <Natural source>  (14) 
Ekebergia pterophylla

>  <Molecular Formula>  (14) 
C14H10O4

>  <InChI-Key>  (14) 
QZSWQZATUQOFHE-UHFFFAOYSA-N

>  <Total Molweight>  (14) 
242.229

>  <cLogP>  (14) 
2.4843

>  <cLogS>  (14) 
-4.488

>  <H-Acceptors>  (14) 
4

>  <H-Donors>  (14) 
0

>  <Rotatable Bonds>  (14) 
1

>  <Polar Surface Area>  (14) 
56.51

$$$$
CDB0015
     RDKit          3D

 30 32  0  0  0  0  0  0  0  0999 V2000
   -1.1229   -2.1310   -1.2547 C   0  0  0  0  0  0  0  0  0  0  0  0
   -2.0603   -1.1768   -0.5696 C   0  0  0  0  0  0  0  0  0  0  0  0
   -1.6139   -0.0367    0.1150 C   0  0  0  0  0  0  0  0  0  0  0  0
   -2.5596    0.8082    0.7316 C   0  0  0  0  0  0  0  0  0  0  0  0
   -3.9255    0.5502    0.6850 C   0  0  0  0  0  0  0  0  0  0  0  0
   -4.3663   -0.5803    0.0061 C   0  0  0  0  0  0  0  0  0  0  0  0
   -3.4450   -1.4334   -0.6136 C   0  0  0  0  0  0  0  0  0  0  0  0
   -2.1567    1.9841    1.4426 O   0  0  0  0  0  0  0  0  0  0  0  0
   -0.8062    2.3867    1.5821 C   0  0  0  0  0  0  0  0  0  0  0  0
   -0.4974    3.4003    2.1982 O   0  0  0  0  0  0  0  0  0  0  0  0
    0.1572    1.5203    0.9503 C   0  0  0  0  0  0  0  0  0  0  0  0
   -0.2500    0.4038    0.2774 C   0  0  0  0  0  0  0  0  0  0  0  0
    0.7991   -0.2677   -0.2382 O   0  0  0  0  0  0  0  0  0  0  0  0
    1.9543    0.4220    0.1001 C   0  0  0  0  0  0  0  0  0  0  0  0
    1.5662    1.5399    0.8420 C   0  0  0  0  0  0  0  0  0  0  0  0
    3.2791    0.0078   -0.2759 C   0  0  0  0  0  0  0  0  0  0  0  0
    3.3943   -1.1207   -1.0011 C   0  0  0  0  0  0  0  0  0  0  0  0
    4.5272    0.7704    0.1006 C   0  0  0  0  0  0  0  0  0  0  0  0
   -0.4320   -2.5748   -0.5311 H   0  0  0  0  0  0  0  0  0  0  0  0
   -0.5613   -1.6173   -2.0414 H   0  0  0  0  0  0  0  0  0  0  0  0
   -1.6663   -2.9547   -1.7304 H   0  0  0  0  0  0  0  0  0  0  0  0
   -4.6330    1.2168    1.1683 H   0  0  0  0  0  0  0  0  0  0  0  0
   -5.4294   -0.8040   -0.0446 H   0  0  0  0  0  0  0  0  0  0  0  0
   -3.8205   -2.3111   -1.1379 H   0  0  0  0  0  0  0  0  0  0  0  0
    2.2323    2.2845    1.2571 H   0  0  0  0  0  0  0  0  0  0  0  0
    2.5319   -1.7098   -1.3008 H   0  0  0  0  0  0  0  0  0  0  0  0
    4.3620   -1.4943   -1.3209 H   0  0  0  0  0  0  0  0  0  0  0  0
    4.6165    0.8365    1.1901 H   0  0  0  0  0  0  0  0  0  0  0  0
    5.4382    0.2951   -0.2788 H   0  0  0  0  0  0  0  0  0  0  0  0
    4.4882    1.7859   -0.3076 H   0  0  0  0  0  0  0  0  0  0  0  0
  1  2  1  0
  2  3  1  0
  3  4  2  0
  4  5  1  0
  5  6  2  0
  6  7  1  0
  4  8  1  0
  8  9  1  0
  9 10  2  0
  9 11  1  0
 11 12  2  0
 12 13  1  0
 13 14  1  0
 14 15  2  0
 14 16  1  0
 16 17  2  0
 16 18  1  0
  7  2  2  0
 12  3  1  0
 15 11  1  0
  1 19  1  0
  1 20  1  0
  1 21  1  0
  5 22  1  0
  6 23  1  0
  7 24  1  0
 15 25  1  0
 17 26  1  0
 17 27  1  0
 18 28  1  0
 18 29  1  0
 18 30  1  0
M  END
>  <Name>  (15) 
Pterophyllin 2

>  <PubChem ID>  (15) 
10977554

>  <CDB ID>  (15) 
CDB0015

>  <Smiles>  (15) 
CC1=C2C(=CC=C1)OC(=O)C3=C2OC(=C3)C(=C)C

>  <Chemical class>  (15) 
4-Oxygenated Coumarins

>  <Natural source>  (15) 
Ekebergia pterophylla

>  <Molecular Formula>  (15) 
C15H12O3

>  <InChI-Key>  (15) 
VQUALAOMJNCAIH-UHFFFAOYSA-N

>  <Total Molweight>  (15) 
240.257

>  <cLogP>  (15) 
3.5364

>  <cLogS>  (15) 
-4.338

>  <H-Acceptors>  (15) 
3

>  <H-Donors>  (15) 
0

>  <Rotatable Bonds>  (15) 
1

>  <Polar Surface Area>  (15) 
39.44

$$$$
CDB0016
     RDKit          3D

 34 36  0  0  0  0  0  0  0  0999 V2000
    1.2809   -2.4506    0.2595 C   0  0  0  0  0  0  0  0  0  0  0  0
    2.1156   -1.2001    0.1602 C   0  0  0  0  0  0  0  0  0  0  0  0
    1.5655    0.1030    0.0973 C   0  0  0  0  0  0  0  0  0  0  0  0
    2.4638    1.1741    0.0092 C   0  0  0  0  0  0  0  0  0  0  0  0
    3.8494    1.0060   -0.0195 C   0  0  0  0  0  0  0  0  0  0  0  0
    4.3780   -0.2734    0.0413 C   0  0  0  0  0  0  0  0  0  0  0  0
    3.5182   -1.3661    0.1303 C   0  0  0  0  0  0  0  0  0  0  0  0
    2.0241    2.5100   -0.0588 O   0  0  0  0  0  0  0  0  0  0  0  0
    0.6831    2.8393   -0.0372 C   0  0  0  0  0  0  0  0  0  0  0  0
    0.3099    4.0057   -0.1057 O   0  0  0  0  0  0  0  0  0  0  0  0
   -0.2771    1.7235    0.0670 C   0  0  0  0  0  0  0  0  0  0  0  0
    0.1288    0.4444    0.1156 C   0  0  0  0  0  0  0  0  0  0  0  0
   -0.7447   -0.6197    0.1793 O   0  0  0  0  0  0  0  0  0  0  0  0
   -2.1419   -0.3717   -0.0541 C   0  0  0  0  0  0  0  0  0  0  0  0
   -2.5862    0.9435    0.5974 C   0  0  0  0  0  0  0  0  0  0  0  0
   -1.7242    2.1099    0.1321 C   0  0  0  0  0  0  0  0  0  0  0  0
   -2.4073   -0.4017   -1.5664 C   0  0  0  0  0  0  0  0  0  0  0  0
   -2.8949   -1.5380    0.5998 C   0  0  0  0  0  0  0  0  0  0  0  0
    0.6773   -2.4391    1.1724 H   0  0  0  0  0  0  0  0  0  0  0  0
    0.6419   -2.5575   -0.6226 H   0  0  0  0  0  0  0  0  0  0  0  0
    1.9062   -3.3493    0.3070 H   0  0  0  0  0  0  0  0  0  0  0  0
    4.5054    1.8691   -0.0890 H   0  0  0  0  0  0  0  0  0  0  0  0
    5.4539   -0.4240    0.0200 H   0  0  0  0  0  0  0  0  0  0  0  0
    3.9519   -2.3640    0.1776 H   0  0  0  0  0  0  0  0  0  0  0  0
   -3.6434    1.1519    0.3954 H   0  0  0  0  0  0  0  0  0  0  0  0
   -2.4799    0.8607    1.6882 H   0  0  0  0  0  0  0  0  0  0  0  0
   -1.8735    2.9469    0.8248 H   0  0  0  0  0  0  0  0  0  0  0  0
   -2.0521    2.4490   -0.8579 H   0  0  0  0  0  0  0  0  0  0  0  0
   -2.0974   -1.3628   -1.9934 H   0  0  0  0  0  0  0  0  0  0  0  0
   -1.8326    0.3627   -2.0993 H   0  0  0  0  0  0  0  0  0  0  0  0
   -3.4687   -0.2506   -1.7891 H   0  0  0  0  0  0  0  0  0  0  0  0
   -2.6804   -1.5874    1.6737 H   0  0  0  0  0  0  0  0  0  0  0  0
   -3.9778   -1.4466    0.4657 H   0  0  0  0  0  0  0  0  0  0  0  0
   -2.5718   -2.4973    0.1788 H   0  0  0  0  0  0  0  0  0  0  0  0
  1  2  1  0
  2  3  1  0
  3  4  2  0
  4  5  1  0
  5  6  2  0
  6  7  1  0
  4  8  1  0
  8  9  1  0
  9 10  2  0
  9 11  1  0
 11 12  2  0
 12 13  1  0
 13 14  1  0
 14 15  1  0
 15 16  1  0
 14 17  1  0
 14 18  1  0
  7  2  2  0
 12  3  1  0
 16 11  1  0
  1 19  1  0
  1 20  1  0
  1 21  1  0
  5 22  1  0
  6 23  1  0
  7 24  1  0
 15 25  1  0
 15 26  1  0
 16 27  1  0
 16 28  1  0
 17 29  1  0
 17 30  1  0
 17 31  1  0
 18 32  1  0
 18 33  1  0
 18 34  1  0
M  END
>  <Name>  (16) 
Pterophyllin 3

>  <PubChem ID>  (16) 
15838082

>  <CDB ID>  (16) 
CDB0016

>  <Smiles>  (16) 
CC1=C2C(=CC=C1)OC(=O)C3=C2OC(CC3)(C)C

>  <Chemical class>  (16) 
4-Oxygenated Coumarins

>  <Natural source>  (16) 
Ekebergia pterophylla

>  <Molecular Formula>  (16) 
C15H16O3

>  <InChI-Key>  (16) 
IWRBSPVHSCTEFR-UHFFFAOYSA-N

>  <Total Molweight>  (16) 
244.289

>  <cLogP>  (16) 
2.9256

>  <cLogS>  (16) 
-3.372

>  <H-Acceptors>  (16) 
3

>  <H-Donors>  (16) 
0

>  <Rotatable Bonds>  (16) 
0

>  <Polar Surface Area>  (16) 
35.53

$$$$
CDB0017
     RDKit          3D

 45 47  0  0  0  0  0  0  0  0999 V2000
    0.1649    3.4289   -0.1009 C   0  0  0  0  0  0  0  0  0  0  0  0
   -1.2692    3.1075    0.2337 C   0  0  0  0  0  0  0  0  0  0  0  0
   -1.7911    1.7905    0.2642 C   0  0  0  0  0  0  0  0  0  0  0  0
   -3.1418    1.6493    0.5910 C   0  0  0  0  0  0  0  0  0  0  0  0
   -3.9763    2.7304    0.8810 C   0  0  0  0  0  0  0  0  0  0  0  0
   -3.4575    4.0144    0.8487 C   0  0  0  0  0  0  0  0  0  0  0  0
   -2.1151    4.2004    0.5282 C   0  0  0  0  0  0  0  0  0  0  0  0
   -3.7547    0.3879    0.6561 O   0  0  0  0  0  0  0  0  0  0  0  0
   -3.0671   -0.7856    0.4067 C   0  0  0  0  0  0  0  0  0  0  0  0
   -3.6384   -1.8638    0.5200 O   0  0  0  0  0  0  0  0  0  0  0  0
   -1.6406   -0.6653    0.0076 C   0  0  0  0  0  0  0  0  0  0  0  0
   -1.0467    0.5456   -0.0201 C   0  0  0  0  0  0  0  0  0  0  0  0
    0.2870    0.7234   -0.3200 O   0  0  0  0  0  0  0  0  0  0  0  0
    1.1220   -0.4310   -0.1843 C   0  0  0  0  0  0  0  0  0  0  0  0
    0.5026   -1.5963   -0.9417 C   0  0  0  0  0  0  0  0  0  0  0  0
   -0.8932   -1.9523   -0.3596 C   0  0  0  0  0  0  0  0  0  0  0  0
   -1.6239   -2.7210   -1.4913 C   0  0  0  0  0  0  0  0  0  0  0  0
   -0.6651   -2.7945    0.9012 C   0  0  0  0  0  0  0  0  0  0  0  0
   -0.9751   -4.0852    1.0903 C   0  0  0  0  0  0  0  0  0  0  0  0
    2.4618   -0.0648   -0.7694 C   0  0  0  0  0  0  0  0  0  0  0  0
    3.6851   -0.3445   -0.2764 C   0  0  0  0  0  0  0  0  0  0  0  0
    4.9256    0.1360   -0.9837 C   0  0  0  0  0  0  0  0  0  0  0  0
    3.9530   -1.1401    0.9714 C   0  0  0  0  0  0  0  0  0  0  0  0
    0.3525    4.5083   -0.0743 H   0  0  0  0  0  0  0  0  0  0  0  0
    0.4086    3.0933   -1.1137 H   0  0  0  0  0  0  0  0  0  0  0  0
    0.8415    2.9743    0.6293 H   0  0  0  0  0  0  0  0  0  0  0  0
   -5.0206    2.5654    1.1306 H   0  0  0  0  0  0  0  0  0  0  0  0
   -4.0911    4.8685    1.0718 H   0  0  0  0  0  0  0  0  0  0  0  0
   -1.7235    5.2165    0.5076 H   0  0  0  0  0  0  0  0  0  0  0  0
    1.2184   -0.6430    0.8851 H   0  0  0  0  0  0  0  0  0  0  0  0
    0.3926   -1.3081   -1.9982 H   0  0  0  0  0  0  0  0  0  0  0  0
    1.1680   -2.4704   -0.9239 H   0  0  0  0  0  0  0  0  0  0  0  0
   -1.8570   -2.0560   -2.3321 H   0  0  0  0  0  0  0  0  0  0  0  0
   -0.9996   -3.5338   -1.8832 H   0  0  0  0  0  0  0  0  0  0  0  0
   -2.5655   -3.1748   -1.1682 H   0  0  0  0  0  0  0  0  0  0  0  0
   -0.2043   -2.2796    1.7448 H   0  0  0  0  0  0  0  0  0  0  0  0
   -0.7716   -4.5673    2.0422 H   0  0  0  0  0  0  0  0  0  0  0  0
   -1.4506   -4.6938    0.3286 H   0  0  0  0  0  0  0  0  0  0  0  0
    2.3968    0.5062   -1.6959 H   0  0  0  0  0  0  0  0  0  0  0  0
    4.6935    0.7179   -1.8819 H   0  0  0  0  0  0  0  0  0  0  0  0
    5.5169    0.7739   -0.3187 H   0  0  0  0  0  0  0  0  0  0  0  0
    5.5422   -0.7156   -1.2894 H   0  0  0  0  0  0  0  0  0  0  0  0
    4.6491   -1.9574    0.7537 H   0  0  0  0  0  0  0  0  0  0  0  0
    3.0553   -1.5949    1.3963 H   0  0  0  0  0  0  0  0  0  0  0  0
    4.4024   -0.4994    1.7370 H   0  0  0  0  0  0  0  0  0  0  0  0
  1  2  1  0
  2  3  1  0
  3  4  2  0
  4  5  1  0
  5  6  2  0
  6  7  1  0
  4  8  1  0
  8  9  1  0
  9 10  2  0
  9 11  1  0
 11 12  2  0
 12 13  1  0
 13 14  1  0
 14 15  1  0
 15 16  1  0
 16 17  1  0
 16 18  1  0
 18 19  2  0
 14 20  1  0
 20 21  2  3
 21 22  1  0
 21 23  1  0
  7  2  2  0
 12  3  1  0
 16 11  1  0
  1 24  1  0
  1 25  1  0
  1 26  1  0
  5 27  1  0
  6 28  1  0
  7 29  1  0
 14 30  1  0
 15 31  1  0
 15 32  1  0
 17 33  1  0
 17 34  1  0
 17 35  1  0
 18 36  1  0
 19 37  1  0
 19 38  1  0
 20 39  1  0
 22 40  1  0
 22 41  1  0
 22 42  1  0
 23 43  1  0
 23 44  1  0
 23 45  1  0
M  END
>  <Name>  (17) 
Preethuliacoumarin

>  <PubChem ID>  (17) 
133556390

>  <CDB ID>  (17) 
CDB0017

>  <Smiles>  (17) 
CC1=C2C(=CC=C1)OC(=O)C3=C2OC(CC3(C)C=C)C=C(C)C

>  <Chemical class>  (17) 
4-Oxygenated Coumarins

>  <Natural source>  (17) 
Vernonia cinarescens

>  <Molecular Formula>  (17) 
C20H22O3

>  <InChI-Key>  (17) 
NJVADEFPOCMONF-UHFFFAOYSA-N

>  <Total Molweight>  (17) 
310.392

>  <cLogP>  (17) 
4.7603

>  <cLogS>  (17) 
-4.245

>  <H-Acceptors>  (17) 
3

>  <H-Donors>  (17) 
0

>  <Rotatable Bonds>  (17) 
2

>  <Polar Surface Area>  (17) 
35.53

$$$$
CDB0018
     RDKit          3D

 58 60  0  0  0  0  0  0  0  0999 V2000
   -1.8273   -2.9961    1.8235 C   0  0  0  0  0  0  0  0  0  0  0  0
   -3.2028   -2.3882    1.7203 C   0  0  0  0  0  0  0  0  0  0  0  0
   -3.4756   -1.1771    1.0374 C   0  0  0  0  0  0  0  0  0  0  0  0
   -4.8012   -0.7367    1.0285 C   0  0  0  0  0  0  0  0  0  0  0  0
   -5.8416   -1.4284    1.6518 C   0  0  0  0  0  0  0  0  0  0  0  0
   -5.5658   -2.6119    2.3166 C   0  0  0  0  0  0  0  0  0  0  0  0
   -4.2572   -3.0873    2.3497 C   0  0  0  0  0  0  0  0  0  0  0  0
   -5.1784    0.4474    0.3755 O   0  0  0  0  0  0  0  0  0  0  0  0
   -4.2715    1.2461   -0.2966 C   0  0  0  0  0  0  0  0  0  0  0  0
   -4.6598    2.2480   -0.8858 O   0  0  0  0  0  0  0  0  0  0  0  0
   -2.8453    0.8297   -0.2647 C   0  0  0  0  0  0  0  0  0  0  0  0
   -2.4926   -0.3271    0.3333 C   0  0  0  0  0  0  0  0  0  0  0  0
   -1.1998   -0.8052    0.3447 O   0  0  0  0  0  0  0  0  0  0  0  0
   -0.3205   -0.2668   -0.6477 C   0  0  0  0  0  0  0  0  0  0  0  0
   -0.3834    1.2531   -0.6107 C   0  0  0  0  0  0  0  0  0  0  0  0
   -1.8190    1.7532   -0.9305 C   0  0  0  0  0  0  0  0  0  0  0  0
   -1.8920    3.1872   -0.3439 C   0  0  0  0  0  0  0  0  0  0  0  0
   -1.9939    1.7073   -2.4530 C   0  0  0  0  0  0  0  0  0  0  0  0
   -2.1436    2.7431   -3.2911 C   0  0  0  0  0  0  0  0  0  0  0  0
    1.0647   -0.7478   -0.3036 C   0  0  0  0  0  0  0  0  0  0  0  0
    2.0217   -1.2068   -1.1368 C   0  0  0  0  0  0  0  0  0  0  0  0
    1.8797   -1.3192   -2.6308 C   0  0  0  0  0  0  0  0  0  0  0  0
    3.3564   -1.6727   -0.5753 C   0  0  0  0  0  0  0  0  0  0  0  0
    4.5350   -0.7278   -0.8531 C   0  0  0  0  0  0  0  0  0  0  0  0
    4.3727    0.6253   -0.2115 C   0  0  0  0  0  0  0  0  0  0  0  0
    4.9449    1.0750    0.9223 C   0  0  0  0  0  0  0  0  0  0  0  0
    5.8507    0.2697    1.8122 C   0  0  0  0  0  0  0  0  0  0  0  0
    4.6894    2.4790    1.4052 C   0  0  0  0  0  0  0  0  0  0  0  0
   -1.8404   -3.9259    2.4034 H   0  0  0  0  0  0  0  0  0  0  0  0
   -1.1429   -2.3150    2.3389 H   0  0  0  0  0  0  0  0  0  0  0  0
   -1.4436   -3.2502    0.8306 H   0  0  0  0  0  0  0  0  0  0  0  0
   -6.8564   -1.0425    1.6141 H   0  0  0  0  0  0  0  0  0  0  0  0
   -6.3622   -3.1647    2.8073 H   0  0  0  0  0  0  0  0  0  0  0  0
   -4.0579   -4.0193    2.8768 H   0  0  0  0  0  0  0  0  0  0  0  0
   -0.6354   -0.6656   -1.6166 H   0  0  0  0  0  0  0  0  0  0  0  0
    0.3469    1.6903   -1.3055 H   0  0  0  0  0  0  0  0  0  0  0  0
   -0.0973    1.5909    0.3970 H   0  0  0  0  0  0  0  0  0  0  0  0
   -2.7979    3.7277   -0.6337 H   0  0  0  0  0  0  0  0  0  0  0  0
   -1.8647    3.1660    0.7526 H   0  0  0  0  0  0  0  0  0  0  0  0
   -1.0413    3.7942   -0.6784 H   0  0  0  0  0  0  0  0  0  0  0  0
   -2.0062    0.7147   -2.9043 H   0  0  0  0  0  0  0  0  0  0  0  0
   -2.1630    3.7741   -2.9547 H   0  0  0  0  0  0  0  0  0  0  0  0
   -2.2722    2.5758   -4.3568 H   0  0  0  0  0  0  0  0  0  0  0  0
    1.2927   -0.7012    0.7620 H   0  0  0  0  0  0  0  0  0  0  0  0
    0.9214   -0.9524   -3.0046 H   0  0  0  0  0  0  0  0  0  0  0  0
    2.6574   -0.7372   -3.1349 H   0  0  0  0  0  0  0  0  0  0  0  0
    1.9765   -2.3651   -2.9396 H   0  0  0  0  0  0  0  0  0  0  0  0
    3.5846   -2.6583   -1.0015 H   0  0  0  0  0  0  0  0  0  0  0  0
    3.2793   -1.8350    0.5083 H   0  0  0  0  0  0  0  0  0  0  0  0
    5.4600   -1.2109   -0.5213 H   0  0  0  0  0  0  0  0  0  0  0  0
    4.6611   -0.5825   -1.9328 H   0  0  0  0  0  0  0  0  0  0  0  0
    3.7164    1.2990   -0.7630 H   0  0  0  0  0  0  0  0  0  0  0  0
    6.8605    0.6924    1.8028 H   0  0  0  0  0  0  0  0  0  0  0  0
    5.9224   -0.7807    1.5210 H   0  0  0  0  0  0  0  0  0  0  0  0
    5.4788    0.2883    2.8423 H   0  0  0  0  0  0  0  0  0  0  0  0
    4.0302    3.0372    0.7321 H   0  0  0  0  0  0  0  0  0  0  0  0
    4.2169    2.4606    2.3928 H   0  0  0  0  0  0  0  0  0  0  0  0
    5.6322    3.0308    1.4799 H   0  0  0  0  0  0  0  0  0  0  0  0
  1  2  1  0
  2  3  1  0
  3  4  2  0
  4  5  1  0
  5  6  2  0
  6  7  1  0
  4  8  1  0
  8  9  1  0
  9 10  2  0
  9 11  1  0
 11 12  2  0
 12 13  1  0
 13 14  1  0
 14 15  1  0
 15 16  1  0
 16 17  1  0
 16 18  1  0
 18 19  2  0
 14 20  1  0
 20 21  2  3
 21 22  1  0
 21 23  1  0
 23 24  1  0
 24 25  1  0
 25 26  2  3
 26 27  1  0
 26 28  1  0
  7  2  2  0
 12  3  1  0
 16 11  1  0
  1 29  1  0
  1 30  1  0
  1 31  1  0
  5 32  1  0
  6 33  1  0
  7 34  1  0
 14 35  1  0
 15 36  1  0
 15 37  1  0
 17 38  1  0
 17 39  1  0
 17 40  1  0
 18 41  1  0
 19 42  1  0
 19 43  1  0
 20 44  1  0
 22 45  1  0
 22 46  1  0
 22 47  1  0
 23 48  1  0
 23 49  1  0
 24 50  1  0
 24 51  1  0
 25 52  1  0
 27 53  1  0
 27 54  1  0
 27 55  1  0
 28 56  1  0
 28 57  1  0
 28 58  1  0
M  END
>  <Name>  (18) 
Triptiliocoumarin

>  <PubChem ID>  (18) 
14104248

>  <CDB ID>  (18) 
CDB0018

>  <Smiles>  (18) 
CC1=C2C(=CC=C1)OC(=O)C3=C2OC(CC3(C)C=C)C=C(C)CCC=C(C)C

>  <Chemical class>  (18) 
4-Oxygenated Coumarins

>  <Natural source>  (18) 
Triptilion benaventei

>  <Molecular Formula>  (18) 
C25H30O3

>  <InChI-Key>  (18) 
CZZAJXDYJLEVJF-UHFFFAOYSA-N

>  <Total Molweight>  (18) 
378.51

>  <cLogP>  (18) 
6.9321

>  <cLogS>  (18) 
-5.221

>  <H-Acceptors>  (18) 
3

>  <H-Donors>  (18) 
0

>  <Rotatable Bonds>  (18) 
5

>  <Polar Surface Area>  (18) 
35.53

$$$$
CDB0019
     RDKit          3D

 47 49  0  0  0  0  0  0  0  0999 V2000
    0.6209    3.0040   -1.4058 C   0  0  0  0  0  0  0  0  0  0  0  0
   -0.5808    3.1694   -0.5136 C   0  0  0  0  0  0  0  0  0  0  0  0
   -1.2256    2.0909    0.1393 C   0  0  0  0  0  0  0  0  0  0  0  0
   -2.3638    2.3948    0.8904 C   0  0  0  0  0  0  0  0  0  0  0  0
   -2.8478    3.6941    1.0567 C   0  0  0  0  0  0  0  0  0  0  0  0
   -2.1891    4.7464    0.4429 C   0  0  0  0  0  0  0  0  0  0  0  0
   -1.0682    4.4846   -0.3403 C   0  0  0  0  0  0  0  0  0  0  0  0
   -3.1273    1.3924    1.5083 O   0  0  0  0  0  0  0  0  0  0  0  0
   -2.8539    0.0487    1.3300 C   0  0  0  0  0  0  0  0  0  0  0  0
   -3.6433   -0.7950    1.7390 O   0  0  0  0  0  0  0  0  0  0  0  0
   -1.5675   -0.2965    0.6694 C   0  0  0  0  0  0  0  0  0  0  0  0
   -0.8155    0.6703    0.1053 C   0  0  0  0  0  0  0  0  0  0  0  0
    0.3889    0.4235   -0.5198 O   0  0  0  0  0  0  0  0  0  0  0  0
    0.6118   -0.9124   -0.9853 C   0  0  0  0  0  0  0  0  0  0  0  0
    0.3016   -1.9058    0.1312 C   0  0  0  0  0  0  0  0  0  0  0  0
   -1.1470   -1.7666    0.6733 C   0  0  0  0  0  0  0  0  0  0  0  0
   -2.1103   -2.5808   -0.2272 C   0  0  0  0  0  0  0  0  0  0  0  0
   -1.0759   -2.3077    2.1104 C   0  0  0  0  0  0  0  0  0  0  0  0
   -1.6307   -3.4267    2.5982 C   0  0  0  0  0  0  0  0  0  0  0  0
    2.0936   -1.0621   -1.4967 C   0  0  0  0  0  0  0  0  0  0  0  0
    3.2151   -0.8662   -0.4894 C   0  0  0  0  0  0  0  0  0  0  0  0
    3.6807    0.3421   -0.1280 C   0  0  0  0  0  0  0  0  0  0  0  0
    3.8333   -2.1237    0.0613 C   0  0  0  0  0  0  0  0  0  0  0  0
    2.2823   -0.1600   -2.6091 O   0  0  0  0  0  0  0  0  0  0  0  0
   -0.2299   -1.1532   -2.1201 O   0  0  0  0  0  0  0  0  0  0  0  0
    0.4234    2.2701   -2.1930 H   0  0  0  0  0  0  0  0  0  0  0  0
    0.8763    3.9403   -1.9149 H   0  0  0  0  0  0  0  0  0  0  0  0
    1.4921    2.7131   -0.8144 H   0  0  0  0  0  0  0  0  0  0  0  0
   -3.7370    3.8751    1.6540 H   0  0  0  0  0  0  0  0  0  0  0  0
   -2.5512    5.7642    0.5596 H   0  0  0  0  0  0  0  0  0  0  0  0
   -0.5707    5.3211   -0.8290 H   0  0  0  0  0  0  0  0  0  0  0  0
    1.0055   -1.7182    0.9537 H   0  0  0  0  0  0  0  0  0  0  0  0
    0.4786   -2.9333   -0.2129 H   0  0  0  0  0  0  0  0  0  0  0  0
   -1.7248   -3.5896   -0.4171 H   0  0  0  0  0  0  0  0  0  0  0  0
   -2.2711   -2.1034   -1.1990 H   0  0  0  0  0  0  0  0  0  0  0  0
   -3.1021   -2.6986    0.2229 H   0  0  0  0  0  0  0  0  0  0  0  0
   -0.5015   -1.7002    2.8120 H   0  0  0  0  0  0  0  0  0  0  0  0
   -1.5106   -3.6895    3.6452 H   0  0  0  0  0  0  0  0  0  0  0  0
   -2.2304   -4.0974    1.9925 H   0  0  0  0  0  0  0  0  0  0  0  0
    2.1954   -2.0599   -1.9433 H   0  0  0  0  0  0  0  0  0  0  0  0
    3.2518    1.2562   -0.5270 H   0  0  0  0  0  0  0  0  0  0  0  0
    4.4933    0.4554    0.5837 H   0  0  0  0  0  0  0  0  0  0  0  0
    4.2710   -2.7149   -0.7499 H   0  0  0  0  0  0  0  0  0  0  0  0
    4.6300   -1.9092    0.7816 H   0  0  0  0  0  0  0  0  0  0  0  0
    3.0854   -2.7374    0.5708 H   0  0  0  0  0  0  0  0  0  0  0  0
    3.2422   -0.1053   -2.7611 H   0  0  0  0  0  0  0  0  0  0  0  0
    0.2025   -0.6432   -2.8347 H   0  0  0  0  0  0  0  0  0  0  0  0
  1  2  1  0
  2  3  1  0
  3  4  2  0
  4  5  1  0
  5  6  2  0
  6  7  1  0
  4  8  1  0
  8  9  1  0
  9 10  2  0
  9 11  1  0
 11 12  2  0
 12 13  1  0
 13 14  1  0
 14 15  1  0
 15 16  1  0
 16 17  1  0
 16 18  1  0
 18 19  2  0
 14 20  1  0
 20 21  1  0
 21 22  2  0
 21 23  1  0
 20 24  1  0
 14 25  1  0
  7  2  2  0
 12  3  1  0
 16 11  1  0
  1 26  1  0
  1 27  1  0
  1 28  1  0
  5 29  1  0
  6 30  1  0
  7 31  1  0
 15 32  1  0
 15 33  1  0
 17 34  1  0
 17 35  1  0
 17 36  1  0
 18 37  1  0
 19 38  1  0
 19 39  1  0
 20 40  1  0
 22 41  1  0
 22 42  1  0
 23 43  1  0
 23 44  1  0
 23 45  1  0
 24 46  1  0
 25 47  1  0
M  END
>  <Name>  (19) 
Isoethuliacoumarin A

>  <PubChem ID>  (19) 
156678

>  <CDB ID>  (19) 
CDB0019

>  <Smiles>  (19) 
CC1=C2C(=CC=C1)OC(=O)C3=C2OC(CC3(C)C=C)(C(C(=C)C)O)O

>  <Chemical class>  (19) 
4-Oxygenated Coumarins

>  <Natural source>  (19) 
Ethulia conyzoides

>  <Molecular Formula>  (19) 
C20H22O5

>  <InChI-Key>  (19) 
LJPDNHJFYBWMCF-UHFFFAOYSA-N

>  <Total Molweight>  (19) 
342.39

>  <cLogP>  (19) 
3.3943

>  <cLogS>  (19) 
-3.696

>  <H-Acceptors>  (19) 
5

>  <H-Donors>  (19) 
2

>  <Rotatable Bonds>  (19) 
3

>  <Polar Surface Area>  (19) 
75.99

$$$$
CDB0020
     RDKit          3D

 47 50  0  0  0  0  0  0  0  0999 V2000
   -0.4344    2.3970   -2.2937 C   0  0  0  0  0  0  0  0  0  0  0  0
   -1.5882    2.4164   -1.3274 C   0  0  0  0  0  0  0  0  0  0  0  0
   -1.8197    1.4095   -0.3585 C   0  0  0  0  0  0  0  0  0  0  0  0
   -2.9528    1.5549    0.4459 C   0  0  0  0  0  0  0  0  0  0  0  0
   -3.8279    2.6390    0.3508 C   0  0  0  0  0  0  0  0  0  0  0  0
   -3.5820    3.6278   -0.5866 C   0  0  0  0  0  0  0  0  0  0  0  0
   -2.4725    3.5154   -1.4198 C   0  0  0  0  0  0  0  0  0  0  0  0
   -3.2972    0.5979    1.4127 O   0  0  0  0  0  0  0  0  0  0  0  0
   -2.5714   -0.5637    1.5988 C   0  0  0  0  0  0  0  0  0  0  0  0
   -2.9315   -1.3787    2.4405 O   0  0  0  0  0  0  0  0  0  0  0  0
   -1.3571   -0.7478    0.7584 C   0  0  0  0  0  0  0  0  0  0  0  0
   -0.9862    0.2127   -0.1132 C   0  0  0  0  0  0  0  0  0  0  0  0
    0.1749    0.1380   -0.8604 O   0  0  0  0  0  0  0  0  0  0  0  0
    1.1944   -0.7107   -0.2917 C   0  0  0  0  0  0  0  0  0  0  0  0
    0.6468   -2.1004   -0.0237 C   0  0  0  0  0  0  0  0  0  0  0  0
   -0.5498   -2.0348    0.9593 C   0  0  0  0  0  0  0  0  0  0  0  0
   -0.0081   -2.0901    2.4105 C   0  0  0  0  0  0  0  0  0  0  0  0
   -1.3497   -3.3154    0.6897 C   0  0  0  0  0  0  0  0  0  0  0  0
   -2.4270   -3.4533   -0.0982 C   0  0  0  0  0  0  0  0  0  0  0  0
    2.5326   -0.7103   -1.0914 C   0  0  0  0  0  0  0  0  0  0  0  0
    3.0938    0.0443    0.1395 C   0  0  0  0  0  0  0  0  0  0  0  0
    1.8552   -0.1457    0.8696 O   0  0  0  0  0  0  0  0  0  0  0  0
    4.2321   -0.6793    0.8485 C   0  0  0  0  0  0  0  0  0  0  0  0
    3.3737    1.5316   -0.0330 C   0  0  0  0  0  0  0  0  0  0  0  0
    2.5499   -0.0319   -2.3734 O   0  0  0  0  0  0  0  0  0  0  0  0
    0.5121    2.5064   -1.7576 H   0  0  0  0  0  0  0  0  0  0  0  0
   -0.4401    1.4756   -2.8841 H   0  0  0  0  0  0  0  0  0  0  0  0
   -0.4924    3.2245   -3.0098 H   0  0  0  0  0  0  0  0  0  0  0  0
   -4.6931    2.7038    1.0046 H   0  0  0  0  0  0  0  0  0  0  0  0
   -4.2507    4.4797   -0.6749 H   0  0  0  0  0  0  0  0  0  0  0  0
   -2.2981    4.2987   -2.1563 H   0  0  0  0  0  0  0  0  0  0  0  0
    1.4318   -2.7654    0.3606 H   0  0  0  0  0  0  0  0  0  0  0  0
    0.3369   -2.5325   -0.9865 H   0  0  0  0  0  0  0  0  0  0  0  0
    0.7599   -2.8653    2.5223 H   0  0  0  0  0  0  0  0  0  0  0  0
    0.4382   -1.1387    2.7187 H   0  0  0  0  0  0  0  0  0  0  0  0
   -0.7909   -2.3296    3.1385 H   0  0  0  0  0  0  0  0  0  0  0  0
   -0.9765   -4.2158    1.1795 H   0  0  0  0  0  0  0  0  0  0  0  0
   -2.9053   -4.4226   -0.2090 H   0  0  0  0  0  0  0  0  0  0  0  0
   -2.8653   -2.6263   -0.6464 H   0  0  0  0  0  0  0  0  0  0  0  0
    2.9644   -1.7099   -1.2204 H   0  0  0  0  0  0  0  0  0  0  0  0
    3.9807   -1.7279    1.0426 H   0  0  0  0  0  0  0  0  0  0  0  0
    5.1434   -0.6595    0.2415 H   0  0  0  0  0  0  0  0  0  0  0  0
    4.4563   -0.2105    1.8128 H   0  0  0  0  0  0  0  0  0  0  0  0
    3.5987    2.0027    0.9300 H   0  0  0  0  0  0  0  0  0  0  0  0
    2.5144    2.0574   -0.4605 H   0  0  0  0  0  0  0  0  0  0  0  0
    4.2304    1.6926   -0.6959 H   0  0  0  0  0  0  0  0  0  0  0  0
    1.8473    0.6402   -2.3028 H   0  0  0  0  0  0  0  0  0  0  0  0
  1  2  1  0
  2  3  1  0
  3  4  2  0
  4  5  1  0
  5  6  2  0
  6  7  1  0
  4  8  1  0
  8  9  1  0
  9 10  2  0
  9 11  1  0
 11 12  2  0
 12 13  1  0
 13 14  1  0
 14 15  1  0
 15 16  1  0
 16 17  1  0
 16 18  1  0
 18 19  2  0
 14 20  1  0
 20 21  1  0
 21 22  1  0
 21 23  1  0
 21 24  1  0
 20 25  1  0
  7  2  2  0
 12  3  1  0
 16 11  1  0
 22 14  1  0
  1 26  1  0
  1 27  1  0
  1 28  1  0
  5 29  1  0
  6 30  1  0
  7 31  1  0
 15 32  1  0
 15 33  1  0
 17 34  1  0
 17 35  1  0
 17 36  1  0
 18 37  1  0
 19 38  1  0
 19 39  1  0
 20 40  1  0
 23 41  1  0
 23 42  1  0
 23 43  1  0
 24 44  1  0
 24 45  1  0
 24 46  1  0
 25 47  1  0
M  END
>  <Name>  (20) 
Isoethuliacoumarin B

>  <PubChem ID>  (20) 
15376404

>  <CDB ID>  (20) 
CDB0020

>  <Smiles>  (20) 
CC1=C2C(=CC=C1)OC(=O)C3=C2OC4(CC3(C)C=C)C(C(O4)(C)C)O

>  <Chemical class>  (20) 
4-Oxygenated Coumarins

>  <Natural source>  (20) 
Ethulia conyzoides

>  <Molecular Formula>  (20) 
C20H22O5

>  <InChI-Key>  (20) 
WEPZBXOVWNYLTR-UHFFFAOYSA-N

>  <Total Molweight>  (20) 
342.39

>  <cLogP>  (20) 
2.9186

>  <cLogS>  (20) 
-3.824

>  <H-Acceptors>  (20) 
5

>  <H-Donors>  (20) 
1

>  <Rotatable Bonds>  (20) 
1

>  <Polar Surface Area>  (20) 
64.99

$$$$
CDB0021
     RDKit          3D

 45 49  0  0  0  0  0  0  0  0999 V2000
    0.0975    3.1030   -1.1176 C   0  0  0  0  0  0  0  0  0  0  0  0
   -1.1153    2.8957   -0.2472 C   0  0  0  0  0  0  0  0  0  0  0  0
   -1.5173    1.6313    0.2502 C   0  0  0  0  0  0  0  0  0  0  0  0
   -2.6636    1.5983    1.0481 C   0  0  0  0  0  0  0  0  0  0  0  0
   -3.4106    2.7351    1.3631 C   0  0  0  0  0  0  0  0  0  0  0  0
   -3.0106    3.9665    0.8712 C   0  0  0  0  0  0  0  0  0  0  0  0
   -1.8717    4.0454    0.0740 C   0  0  0  0  0  0  0  0  0  0  0  0
   -3.1391    0.4005    1.6042 O   0  0  0  0  0  0  0  0  0  0  0  0
   -2.4948   -0.8075    1.4168 C   0  0  0  0  0  0  0  0  0  0  0  0
   -2.8905   -1.8100    2.0010 O   0  0  0  0  0  0  0  0  0  0  0  0
   -1.3240   -0.8195    0.4987 C   0  0  0  0  0  0  0  0  0  0  0  0
   -0.8484    0.3368   -0.0017 C   0  0  0  0  0  0  0  0  0  0  0  0
    0.2749    0.4117   -0.7888 O   0  0  0  0  0  0  0  0  0  0  0  0
    1.1834   -0.6897   -0.7650 C   0  0  0  0  0  0  0  0  0  0  0  0
    0.4391   -2.0110   -0.8725 C   0  0  0  0  0  0  0  0  0  0  0  0
   -0.6930   -2.1725    0.1742 C   0  0  0  0  0  0  0  0  0  0  0  0
   -0.1226   -2.7993    1.4702 C   0  0  0  0  0  0  0  0  0  0  0  0
   -1.6661   -3.1816   -0.4504 C   0  0  0  0  0  0  0  0  0  0  0  0
   -2.7877   -2.9152   -1.1371 C   0  0  0  0  0  0  0  0  0  0  0  0
    2.1433   -0.5810    0.3921 C   0  0  0  0  0  0  0  0  0  0  0  0
    3.3986   -0.0040   -0.1504 C   0  0  0  0  0  0  0  0  0  0  0  0
    2.5806    0.7357    0.7619 O   0  0  0  0  0  0  0  0  0  0  0  0
    3.1627    0.2251   -1.5974 C   0  0  0  0  0  0  0  0  0  0  0  0
    2.0343   -0.5998   -1.9407 O   0  0  0  0  0  0  0  0  0  0  0  0
    4.7354   -0.3879    0.3605 C   0  0  0  0  0  0  0  0  0  0  0  0
    0.0025    2.5420   -2.0524 H   0  0  0  0  0  0  0  0  0  0  0  0
    0.2189    4.1562   -1.3953 H   0  0  0  0  0  0  0  0  0  0  0  0
    1.0073    2.8125   -0.5840 H   0  0  0  0  0  0  0  0  0  0  0  0
   -4.2941    2.6543    1.9900 H   0  0  0  0  0  0  0  0  0  0  0  0
   -3.5779    4.8628    1.1065 H   0  0  0  0  0  0  0  0  0  0  0  0
   -1.5698    5.0215   -0.3029 H   0  0  0  0  0  0  0  0  0  0  0  0
    1.1437   -2.8533   -0.8377 H   0  0  0  0  0  0  0  0  0  0  0  0
    0.0065   -2.0495   -1.8850 H   0  0  0  0  0  0  0  0  0  0  0  0
    0.6079   -3.5867    1.2489 H   0  0  0  0  0  0  0  0  0  0  0  0
   -0.9022   -3.2688    2.0812 H   0  0  0  0  0  0  0  0  0  0  0  0
    0.3703   -2.0554    2.1048 H   0  0  0  0  0  0  0  0  0  0  0  0
   -1.3903   -4.2318   -0.3445 H   0  0  0  0  0  0  0  0  0  0  0  0
   -3.3916   -3.7247   -1.5380 H   0  0  0  0  0  0  0  0  0  0  0  0
   -3.1381   -1.9058   -1.3248 H   0  0  0  0  0  0  0  0  0  0  0  0
    2.2130   -1.4056    1.0785 H   0  0  0  0  0  0  0  0  0  0  0  0
    2.9210    1.2709   -1.8149 H   0  0  0  0  0  0  0  0  0  0  0  0
    4.0086   -0.0795   -2.2203 H   0  0  0  0  0  0  0  0  0  0  0  0
    4.7303   -0.5335    1.4459 H   0  0  0  0  0  0  0  0  0  0  0  0
    5.0698   -1.3219   -0.1023 H   0  0  0  0  0  0  0  0  0  0  0  0
    5.4696    0.3901    0.1291 H   0  0  0  0  0  0  0  0  0  0  0  0
  1  2  1  0
  2  3  1  0
  3  4  2  0
  4  5  1  0
  5  6  2  0
  6  7  1  0
  4  8  1  0
  8  9  1  0
  9 10  2  0
  9 11  1  0
 11 12  2  0
 12 13  1  0
 13 14  1  0
 14 15  1  0
 15 16  1  0
 16 17  1  0
 16 18  1  0
 18 19  2  0
 14 20  1  0
 20 21  1  0
 21 22  1  0
 21 23  1  0
 23 24  1  0
 21 25  1  0
  7  2  2  0
 12  3  1  0
 16 11  1  0
 24 14  1  0
 22 20  1  0
  1 26  1  0
  1 27  1  0
  1 28  1  0
  5 29  1  0
  6 30  1  0
  7 31  1  0
 15 32  1  0
 15 33  1  0
 17 34  1  0
 17 35  1  0
 17 36  1  0
 18 37  1  0
 19 38  1  0
 19 39  1  0
 20 40  1  0
 23 41  1  0
 23 42  1  0
 25 43  1  0
 25 44  1  0
 25 45  1  0
M  END
>  <Name>  (21) 
Cycloethuliacoumarin

>  <PubChem ID>  (21) 
102316529

>  <CDB ID>  (21) 
CDB0021

>  <Smiles>  (21) 
CC1=C2C(=CC=C1)OC(=O)C3=C2OC4(CC3(C)C=C)C5C(O5)(CO4)C

>  <Chemical class>  (21) 
4-Oxygenated Coumarins

>  <Natural source>  (21) 
Ethulia conyzoides

>  <Molecular Formula>  (21) 
C20H20O5

>  <InChI-Key>  (21) 
AWNULKZWGIHZJH-UHFFFAOYSA-N

>  <Total Molweight>  (21) 
340.374

>  <cLogP>  (21) 
2.6382

>  <cLogS>  (21) 
-3.798

>  <H-Acceptors>  (21) 
5

>  <H-Donors>  (21) 
0

>  <Rotatable Bonds>  (21) 
1

>  <Polar Surface Area>  (21) 
57.29

$$$$
CDB0022
     RDKit          3D

 32 34  0  0  0  0  0  0  0  0999 V2000
    0.9105   -2.3899   -0.4217 C   0  0  0  0  0  0  0  0  0  0  0  0
    1.8701   -1.2366   -0.2812 C   0  0  0  0  0  0  0  0  0  0  0  0
    1.4593    0.0990   -0.0500 C   0  0  0  0  0  0  0  0  0  0  0  0
    2.4651    1.0672    0.0589 C   0  0  0  0  0  0  0  0  0  0  0  0
    3.8249    0.7699   -0.0497 C   0  0  0  0  0  0  0  0  0  0  0  0
    4.2163   -0.5397   -0.2759 C   0  0  0  0  0  0  0  0  0  0  0  0
    3.2470   -1.5335   -0.3905 C   0  0  0  0  0  0  0  0  0  0  0  0
    2.1699    2.4239    0.2883 O   0  0  0  0  0  0  0  0  0  0  0  0
    0.8717    2.8803    0.4195 C   0  0  0  0  0  0  0  0  0  0  0  0
    0.6359    4.0687    0.6193 O   0  0  0  0  0  0  0  0  0  0  0  0
   -0.2082    1.8697    0.3072 C   0  0  0  0  0  0  0  0  0  0  0  0
    0.0659    0.5716    0.0880 C   0  0  0  0  0  0  0  0  0  0  0  0
   -0.9083   -0.3970   -0.0223 O   0  0  0  0  0  0  0  0  0  0  0  0
   -2.3051   -0.0570    0.0948 C   0  0  0  0  0  0  0  0  0  0  0  0
   -2.5736    1.4067    0.3400 C   0  0  0  0  0  0  0  0  0  0  0  0
   -1.5837    2.2995    0.4376 C   0  0  0  0  0  0  0  0  0  0  0  0
   -2.8589   -0.8843    1.2592 C   0  0  0  0  0  0  0  0  0  0  0  0
   -2.9704   -0.4901   -1.2155 C   0  0  0  0  0  0  0  0  0  0  0  0
    0.2481   -2.2371   -1.2794 H   0  0  0  0  0  0  0  0  0  0  0  0
    0.3281   -2.5198    0.4958 H   0  0  0  0  0  0  0  0  0  0  0  0
    1.4384   -3.3343   -0.5958 H   0  0  0  0  0  0  0  0  0  0  0  0
    4.5677    1.5573    0.0422 H   0  0  0  0  0  0  0  0  0  0  0  0
    5.2702   -0.7902   -0.3633 H   0  0  0  0  0  0  0  0  0  0  0  0
    3.5735   -2.5572   -0.5683 H   0  0  0  0  0  0  0  0  0  0  0  0
   -3.6054    1.7326    0.4384 H   0  0  0  0  0  0  0  0  0  0  0  0
   -1.7915    3.3515    0.6145 H   0  0  0  0  0  0  0  0  0  0  0  0
   -2.6709   -1.9530    1.1024 H   0  0  0  0  0  0  0  0  0  0  0  0
   -3.9369   -0.7394    1.3894 H   0  0  0  0  0  0  0  0  0  0  0  0
   -2.3598   -0.6193    2.1991 H   0  0  0  0  0  0  0  0  0  0  0  0
   -2.7844   -1.5521   -1.4149 H   0  0  0  0  0  0  0  0  0  0  0  0
   -4.0536   -0.3271   -1.1993 H   0  0  0  0  0  0  0  0  0  0  0  0
   -2.5520    0.0601   -2.0669 H   0  0  0  0  0  0  0  0  0  0  0  0
  1  2  1  0
  2  3  1  0
  3  4  2  0
  4  5  1  0
  5  6  2  0
  6  7  1  0
  4  8  1  0
  8  9  1  0
  9 10  2  0
  9 11  1  0
 11 12  2  0
 12 13  1  0
 13 14  1  0
 14 15  1  0
 15 16  2  0
 14 17  1  0
 14 18  1  0
  7  2  2  0
 12  3  1  0
 16 11  1  0
  1 19  1  0
  1 20  1  0
  1 21  1  0
  5 22  1  0
  6 23  1  0
  7 24  1  0
 15 25  1  0
 16 26  1  0
 17 27  1  0
 17 28  1  0
 17 29  1  0
 18 30  1  0
 18 31  1  0
 18 32  1  0
M  END
>  <Name>  (22) 
Bothrioclinin

>  <PubChem ID>  (22) 
21670094

>  <CDB ID>  (22) 
CDB0022

>  <Smiles>  (22) 
CC1=C2C(=CC=C1)OC(=O)C3=C2OC(C=C3)(C)C

>  <Chemical class>  (22) 
4-Oxygenated Coumarins

>  <Natural source>  (22) 
Bothriocline taxa

>  <Molecular Formula>  (22) 
C15H14O3

>  <InChI-Key>  (22) 
NMHATOSACVYKOU-UHFFFAOYSA-N

>  <Total Molweight>  (22) 
242.273

>  <cLogP>  (22) 
2.6502

>  <cLogS>  (22) 
-3.144

>  <H-Acceptors>  (22) 
3

>  <H-Donors>  (22) 
0

>  <Rotatable Bonds>  (22) 
0

>  <Polar Surface Area>  (22) 
35.53

$$$$
CDB0023
     RDKit          3D

 45 49  0  0  0  0  0  0  0  0999 V2000
   -3.0773    2.0399    0.3477 C   0  0  0  0  0  0  0  0  0  0  0  0
   -2.9367    0.5296    0.4063 C   0  0  0  0  0  0  0  0  0  0  0  0
   -2.0155    0.0495    1.5200 C   0  0  0  0  0  0  0  0  0  0  0  0
   -1.7723   -1.4138    1.1759 C   0  0  0  0  0  0  0  0  0  0  0  0
   -1.8239   -1.5134   -0.3608 C   0  0  0  0  0  0  0  0  0  0  0  0
   -2.4108   -0.1733   -0.8555 C   0  0  0  0  0  0  0  0  0  0  0  0
   -1.4283    0.5566   -1.7939 C   0  0  0  0  0  0  0  0  0  0  0  0
   -0.1358    1.0499   -1.2053 C   0  0  0  0  0  0  0  0  0  0  0  0
    0.7589    0.2472   -0.6023 C   0  0  0  0  0  0  0  0  0  0  0  0
    2.0083    0.7947   -0.0270 C   0  0  0  0  0  0  0  0  0  0  0  0
    3.0044    0.0604    0.6634 C   0  0  0  0  0  0  0  0  0  0  0  0
    4.1506    0.7273    1.1518 C   0  0  0  0  0  0  0  0  0  0  0  0
    4.3262    2.0970    0.9734 C   0  0  0  0  0  0  0  0  0  0  0  0
    3.3565    2.8245    0.3035 C   0  0  0  0  0  0  0  0  0  0  0  0
    2.2232    2.1684   -0.1808 C   0  0  0  0  0  0  0  0  0  0  0  0
    1.2966    2.9932   -0.8400 O   0  0  0  0  0  0  0  0  0  0  0  0
    0.1145    2.5004   -1.3528 C   0  0  0  0  0  0  0  0  0  0  0  0
   -0.6924    3.2472   -1.8952 O   0  0  0  0  0  0  0  0  0  0  0  0
    2.9248   -1.4232    0.9177 C   0  0  0  0  0  0  0  0  0  0  0  0
    0.6071   -1.1075   -0.4598 O   0  0  0  0  0  0  0  0  0  0  0  0
   -0.4773   -1.8270   -1.0495 C   0  0  0  0  0  0  0  0  0  0  0  0
   -0.6217   -1.5756   -2.5656 C   0  0  0  0  0  0  0  0  0  0  0  0
   -0.3408   -2.3904   -3.4367 O   0  0  0  0  0  0  0  0  0  0  0  0
   -1.1032   -0.3418   -2.8842 O   0  0  0  0  0  0  0  0  0  0  0  0
   -0.1300   -3.3094   -0.8289 C   0  0  0  0  0  0  0  0  0  0  0  0
   -3.6134    2.4026    1.2316 H   0  0  0  0  0  0  0  0  0  0  0  0
   -2.1095    2.5453    0.3348 H   0  0  0  0  0  0  0  0  0  0  0  0
   -3.6451    2.3466   -0.5362 H   0  0  0  0  0  0  0  0  0  0  0  0
   -3.9379    0.1210    0.6085 H   0  0  0  0  0  0  0  0  0  0  0  0
   -1.0734    0.6062    1.5338 H   0  0  0  0  0  0  0  0  0  0  0  0
   -2.4745    0.1585    2.5080 H   0  0  0  0  0  0  0  0  0  0  0  0
   -0.8403   -1.7802    1.6160 H   0  0  0  0  0  0  0  0  0  0  0  0
   -2.5832   -2.0211    1.5977 H   0  0  0  0  0  0  0  0  0  0  0  0
   -2.5398   -2.3048   -0.6269 H   0  0  0  0  0  0  0  0  0  0  0  0
   -3.2848   -0.4173   -1.4789 H   0  0  0  0  0  0  0  0  0  0  0  0
   -1.9874    1.3702   -2.2665 H   0  0  0  0  0  0  0  0  0  0  0  0
    4.9238    0.1714    1.6807 H   0  0  0  0  0  0  0  0  0  0  0  0
    5.2159    2.5898    1.3562 H   0  0  0  0  0  0  0  0  0  0  0  0
    3.4767    3.8941    0.1560 H   0  0  0  0  0  0  0  0  0  0  0  0
    3.7897   -1.7819    1.4871 H   0  0  0  0  0  0  0  0  0  0  0  0
    2.9188   -1.9752   -0.0273 H   0  0  0  0  0  0  0  0  0  0  0  0
    2.0377   -1.6650    1.5113 H   0  0  0  0  0  0  0  0  0  0  0  0
    0.8286   -3.5568   -1.3010 H   0  0  0  0  0  0  0  0  0  0  0  0
   -0.0140   -3.5394    0.2359 H   0  0  0  0  0  0  0  0  0  0  0  0
   -0.8930   -3.9746   -1.2474 H   0  0  0  0  0  0  0  0  0  0  0  0
  1  2  1  0
  2  3  1  0
  3  4  1  0
  4  5  1  0
  5  6  1  0
  6  7  1  0
  7  8  1  0
  8  9  2  0
  9 10  1  0
 10 11  1  0
 11 12  2  0
 12 13  1  0
 13 14  2  0
 14 15  1  0
 15 16  1  0
 16 17  1  0
 17 18  2  0
 11 19  1  0
  9 20  1  0
 20 21  1  0
 21 22  1  0
 22 23  2  0
 22 24  1  0
 21 25  1  0
  6  2  1  0
 21  5  1  0
 24  7  1  0
 17  8  1  0
 15 10  2  0
  1 26  1  0
  1 27  1  0
  1 28  1  0
  2 29  1  0
  3 30  1  0
  3 31  1  0
  4 32  1  0
  4 33  1  0
  5 34  1  0
  6 35  1  0
  7 36  1  0
 12 37  1  0
 13 38  1  0
 14 39  1  0
 19 40  1  0
 19 41  1  0
 19 42  1  0
 25 43  1  0
 25 44  1  0
 25 45  1  0
M  END
>  <Name>  (23) 
Aphyllodenticulide

>  <PubChem ID>  (23) 
122368494

>  <CDB ID>  (23) 
CDB0023

>  <Smiles>  (23) 
CC1CCC2C1C3C4=C(C5=C(C=CC=C5OC4=O)C)OC2(C(=O)O3)C

>  <Chemical class>  (23) 
4-Oxygenated Coumarins

>  <Natural source>  (23) 
Aphyllocladus denticulatus

>  <Molecular Formula>  (23) 
C20H20O5

>  <InChI-Key>  (23) 
GUJJYAWCAPDUTL-UHFFFAOYSA-N

>  <Total Molweight>  (23) 
340.374

>  <cLogP>  (23) 
2.4256

>  <cLogS>  (23) 
-4.035

>  <H-Acceptors>  (23) 
5

>  <H-Donors>  (23) 
0

>  <Rotatable Bonds>  (23) 
0

>  <Polar Surface Area>  (23) 
61.83

$$$$
CDB0024
     RDKit          3D

 46 47  0  0  0  0  0  0  0  0999 V2000
   -4.7365    1.0275    0.8323 C   0  0  0  0  0  0  0  0  0  0  0  0
   -4.9095    0.4770   -0.5566 C   0  0  0  0  0  0  0  0  0  0  0  0
   -3.9389    0.4027   -1.4885 C   0  0  0  0  0  0  0  0  0  0  0  0
   -2.5148    0.8807   -1.3805 C   0  0  0  0  0  0  0  0  0  0  0  0
   -1.4838   -0.2565   -1.3348 C   0  0  0  0  0  0  0  0  0  0  0  0
   -1.4410   -1.0117   -0.0208 C   0  0  0  0  0  0  0  0  0  0  0  0
   -0.7199   -0.6258    1.0520 C   0  0  0  0  0  0  0  0  0  0  0  0
    0.1250    0.6163    1.2004 C   0  0  0  0  0  0  0  0  0  0  0  0
    1.6022    0.3042    1.2632 C   0  0  0  0  0  0  0  0  0  0  0  0
    2.4614    0.5601    0.2608 C   0  0  0  0  0  0  0  0  0  0  0  0
    3.9012    0.2179    0.3514 C   0  0  0  0  0  0  0  0  0  0  0  0
    4.9261    0.3996   -0.6056 C   0  0  0  0  0  0  0  0  0  0  0  0
    6.2338   -0.0887   -0.3828 C   0  0  0  0  0  0  0  0  0  0  0  0
    6.5614   -0.7435    0.7992 C   0  0  0  0  0  0  0  0  0  0  0  0
    5.5861   -0.9100    1.7668 C   0  0  0  0  0  0  0  0  0  0  0  0
    4.2907   -0.4347    1.5307 C   0  0  0  0  0  0  0  0  0  0  0  0
    3.3940   -0.6598    2.5930 O   0  0  0  0  0  0  0  0  0  0  0  0
    2.0701   -0.2696    2.5411 C   0  0  0  0  0  0  0  0  0  0  0  0
    1.3352   -0.4087    3.5126 O   0  0  0  0  0  0  0  0  0  0  0  0
    4.7870    1.1233   -1.8881 C   0  0  0  0  0  0  0  0  0  0  0  0
    3.9343    1.9833   -2.0703 O   0  0  0  0  0  0  0  0  0  0  0  0
    1.9559    1.1003   -0.9053 O   0  0  0  0  0  0  0  0  0  0  0  0
   -2.2355   -2.2918    0.0171 C   0  0  0  0  0  0  0  0  0  0  0  0
   -6.2966   -0.0306   -0.8517 C   0  0  0  0  0  0  0  0  0  0  0  0
   -5.3530    1.9231    0.9608 H   0  0  0  0  0  0  0  0  0  0  0  0
   -3.7053    1.2948    1.0717 H   0  0  0  0  0  0  0  0  0  0  0  0
   -5.0514    0.2836    1.5721 H   0  0  0  0  0  0  0  0  0  0  0  0
   -4.1834   -0.0361   -2.4558 H   0  0  0  0  0  0  0  0  0  0  0  0
   -2.3716    1.5602   -0.5353 H   0  0  0  0  0  0  0  0  0  0  0  0
   -2.3136    1.4863   -2.2740 H   0  0  0  0  0  0  0  0  0  0  0  0
   -0.4937    0.1660   -1.5409 H   0  0  0  0  0  0  0  0  0  0  0  0
   -1.6619   -0.9598   -2.1590 H   0  0  0  0  0  0  0  0  0  0  0  0
   -0.7520   -1.2490    1.9468 H   0  0  0  0  0  0  0  0  0  0  0  0
   -0.1821    1.1359    2.1175 H   0  0  0  0  0  0  0  0  0  0  0  0
   -0.0916    1.3344    0.4027 H   0  0  0  0  0  0  0  0  0  0  0  0
    7.0181    0.0561   -1.1247 H   0  0  0  0  0  0  0  0  0  0  0  0
    7.5712   -1.1093    0.9682 H   0  0  0  0  0  0  0  0  0  0  0  0
    5.8217   -1.4092    2.7038 H   0  0  0  0  0  0  0  0  0  0  0  0
    5.5251    0.8872   -2.6740 H   0  0  0  0  0  0  0  0  0  0  0  0
    2.6362    1.6411   -1.3604 H   0  0  0  0  0  0  0  0  0  0  0  0
   -1.8889   -2.9753   -0.7651 H   0  0  0  0  0  0  0  0  0  0  0  0
   -3.2996   -2.0962   -0.1394 H   0  0  0  0  0  0  0  0  0  0  0  0
   -2.1358   -2.8126    0.9755 H   0  0  0  0  0  0  0  0  0  0  0  0
   -6.3889   -0.4216   -1.8704 H   0  0  0  0  0  0  0  0  0  0  0  0
   -6.5600   -0.8382   -0.1609 H   0  0  0  0  0  0  0  0  0  0  0  0
   -7.0272    0.7771   -0.7387 H   0  0  0  0  0  0  0  0  0  0  0  0
  1  2  1  0
  2  3  2  3
  3  4  1  0
  4  5  1  0
  5  6  1  0
  6  7  2  3
  7  8  1  0
  8  9  1  0
  9 10  2  0
 10 11  1  0
 11 12  1  0
 12 13  2  0
 13 14  1  0
 14 15  2  0
 15 16  1  0
 16 17  1  0
 17 18  1  0
 18 19  2  0
 12 20  1  0
 20 21  2  0
 10 22  1  0
  6 23  1  0
  2 24  1  0
 18  9  1  0
 16 11  2  0
  1 25  1  0
  1 26  1  0
  1 27  1  0
  3 28  1  0
  4 29  1  0
  4 30  1  0
  5 31  1  0
  5 32  1  0
  7 33  1  0
  8 34  1  0
  8 35  1  0
 13 36  1  0
 14 37  1  0
 15 38  1  0
 20 39  1  0
 22 40  1  0
 23 41  1  0
 23 42  1  0
 23 43  1  0
 24 44  1  0
 24 45  1  0
 24 46  1  0
M  END
>  <Name>  (24) 
Piloselloidal

>  <PubChem ID>  (24) 
54714263

>  <CDB ID>  (24) 
CDB0024

>  <Smiles>  (24) 
CC(=CCCC(=CCC1=C(C2=C(C=CC=C2OC1=O)C=O)O)C)C

>  <Chemical class>  (24) 
4-Oxygenated Coumarins

>  <Natural source>  (24) 
Gerbera piloselloides

>  <Molecular Formula>  (24) 
C20H22O4

>  <InChI-Key>  (24) 
ASBKVAWLDVJWDU-UHFFFAOYSA-N

>  <Total Molweight>  (24) 
326.391

>  <cLogP>  (24) 
5.3779

>  <cLogS>  (24) 
-4.033

>  <H-Acceptors>  (24) 
4

>  <H-Donors>  (24) 
1

>  <Rotatable Bonds>  (24) 
6

>  <Polar Surface Area>  (24) 
63.6

$$$$
CDB0025
     RDKit          3D

 39 41  0  0  0  0  0  0  0  0999 V2000
   -3.7198   -1.4168    1.4524 C   0  0  0  0  0  0  0  0  0  0  0  0
   -4.3979   -0.4352    0.7330 C   0  0  0  0  0  0  0  0  0  0  0  0
   -3.7771    0.1548   -0.3679 C   0  0  0  0  0  0  0  0  0  0  0  0
   -2.4886   -0.1995   -0.7675 C   0  0  0  0  0  0  0  0  0  0  0  0
   -1.9266    0.4526   -1.9432 C   0  0  0  0  0  0  0  0  0  0  0  0
   -2.6384    1.3719   -2.6015 C   0  0  0  0  0  0  0  0  0  0  0  0
   -3.9952    1.7644   -2.1868 C   0  0  0  0  0  0  0  0  0  0  0  0
   -4.6199    2.6142   -2.8108 O   0  0  0  0  0  0  0  0  0  0  0  0
   -4.5174    1.1284   -1.0695 O   0  0  0  0  0  0  0  0  0  0  0  0
   -1.8086   -1.1656   -0.0159 C   0  0  0  0  0  0  0  0  0  0  0  0
   -2.4287   -1.7898    1.0737 C   0  0  0  0  0  0  0  0  0  0  0  0
   -0.5539   -1.5806   -0.3844 O   0  0  0  0  0  0  0  0  0  0  0  0
    0.4623   -0.9583    0.4294 C   0  0  0  0  0  0  0  0  0  0  0  0
    1.7496   -1.8065    0.2480 C   0  0  0  0  0  0  0  0  0  0  0  0
    3.0014   -1.0899    0.7937 C   0  0  0  0  0  0  0  0  0  0  0  0
    2.5992    0.1319    1.6245 C   0  0  0  0  0  0  0  0  0  0  0  0
    1.6956    1.0788    0.7905 C   0  0  0  0  0  0  0  0  0  0  0  0
    0.6951    0.3872    0.0159 O   0  0  0  0  0  0  0  0  0  0  0  0
    2.4411    2.0053   -0.1876 C   0  0  0  0  0  0  0  0  0  0  0  0
    3.5080    2.7062    0.4406 O   0  0  0  0  0  0  0  0  0  0  0  0
    3.7262    0.7645    2.2193 O   0  0  0  0  0  0  0  0  0  0  0  0
    3.8647   -0.6960   -0.2861 O   0  0  0  0  0  0  0  0  0  0  0  0
    1.9865   -2.1355   -1.1405 O   0  0  0  0  0  0  0  0  0  0  0  0
   -4.2000   -1.8969    2.3017 H   0  0  0  0  0  0  0  0  0  0  0  0
   -5.4040   -0.1398    1.0179 H   0  0  0  0  0  0  0  0  0  0  0  0
   -0.9263    0.1845   -2.2654 H   0  0  0  0  0  0  0  0  0  0  0  0
   -2.2474    1.8773   -3.4759 H   0  0  0  0  0  0  0  0  0  0  0  0
   -1.9148   -2.5729    1.6246 H   0  0  0  0  0  0  0  0  0  0  0  0
    0.1596   -0.9677    1.4855 H   0  0  0  0  0  0  0  0  0  0  0  0
    1.6028   -2.7609    0.7669 H   0  0  0  0  0  0  0  0  0  0  0  0
    3.5893   -1.7813    1.4076 H   0  0  0  0  0  0  0  0  0  0  0  0
    2.0077   -0.2363    2.4722 H   0  0  0  0  0  0  0  0  0  0  0  0
    1.1716    1.7270    1.5047 H   0  0  0  0  0  0  0  0  0  0  0  0
    1.7390    2.7396   -0.5995 H   0  0  0  0  0  0  0  0  0  0  0  0
    2.8369    1.4454   -1.0407 H   0  0  0  0  0  0  0  0  0  0  0  0
    3.9200    3.2591   -0.2485 H   0  0  0  0  0  0  0  0  0  0  0  0
    4.0789    1.3949    1.5537 H   0  0  0  0  0  0  0  0  0  0  0  0
    3.6280   -1.2959   -1.0268 H   0  0  0  0  0  0  0  0  0  0  0  0
    1.1009   -2.2625   -1.5375 H   0  0  0  0  0  0  0  0  0  0  0  0
  1  2  2  0
  2  3  1  0
  3  4  2  0
  4  5  1  0
  5  6  2  0
  6  7  1  0
  7  8  2  0
  7  9  1  0
  4 10  1  0
 10 11  2  0
 10 12  1  0
 12 13  1  0
 13 14  1  0
 14 15  1  0
 15 16  1  0
 16 17  1  0
 17 18  1  0
 17 19  1  0
 19 20  1  0
 16 21  1  0
 15 22  1  0
 14 23  1  0
 11  1  1  0
  9  3  1  0
 18 13  1  0
  1 24  1  0
  2 25  1  0
  5 26  1  0
  6 27  1  0
 11 28  1  0
 13 29  1  0
 14 30  1  0
 15 31  1  0
 16 32  1  0
 17 33  1  0
 19 34  1  0
 19 35  1  0
 20 36  1  0
 21 37  1  0
 22 38  1  0
 23 39  1  0
M  END
>  <Name>  (25) 
Mahaleboside

>  <PubChem ID>  (25) 
131751353

>  <CDB ID>  (25) 
CDB0025

>  <Smiles>  (25) 
C1=CC2=C(C=CC(=O)O2)C(=C1)OC3C(C(C(C(O3)CO)O)O)O

>  <Chemical class>  (25) 
5-Oxygenated Coumarins

>  <Natural source>  (25) 
Prunus mahaleb

>  <Molecular Formula>  (25) 
C15H16O8

>  <InChI-Key>  (25) 
UMXDJWMIEHQSHF-UHFFFAOYSA-N

>  <Total Molweight>  (25) 
324.284

>  <cLogP>  (25) 
-0.8376

>  <cLogS>  (25) 
-1.96

>  <H-Acceptors>  (25) 
8

>  <H-Donors>  (25) 
4

>  <Rotatable Bonds>  (25) 
3

>  <Polar Surface Area>  (25) 
125.68

$$$$
CDB0026
     RDKit          3D

 26 27  0  0  0  0  0  0  0  0999 V2000
   -2.6023    1.5679    0.9914 C   0  0  0  0  0  0  0  0  0  0  0  0
   -2.3029    0.2851    0.2700 C   0  0  0  0  0  0  0  0  0  0  0  0
   -3.3137   -0.5085   -0.1177 C   0  0  0  0  0  0  0  0  0  0  0  0
   -3.1291   -1.7791   -0.8267 C   0  0  0  0  0  0  0  0  0  0  0  0
   -4.0899   -2.4639   -1.1568 O   0  0  0  0  0  0  0  0  0  0  0  0
   -1.8266   -2.1500   -1.0949 O   0  0  0  0  0  0  0  0  0  0  0  0
   -0.7382   -1.3438   -0.7041 C   0  0  0  0  0  0  0  0  0  0  0  0
   -0.9131   -0.1304   -0.0271 C   0  0  0  0  0  0  0  0  0  0  0  0
    0.2591    0.5820    0.3079 C   0  0  0  0  0  0  0  0  0  0  0  0
    1.5458    0.0883   -0.0272 C   0  0  0  0  0  0  0  0  0  0  0  0
    1.6613   -1.1315   -0.7049 C   0  0  0  0  0  0  0  0  0  0  0  0
    0.5183   -1.8479   -1.0435 C   0  0  0  0  0  0  0  0  0  0  0  0
    2.7711    0.8654    0.3408 C   0  0  0  0  0  0  0  0  0  0  0  0
    2.6439    1.9359    0.9368 O   0  0  0  0  0  0  0  0  0  0  0  0
    4.1326    0.3318   -0.0198 C   0  0  0  0  0  0  0  0  0  0  0  0
    0.1300    1.7787    0.9735 O   0  0  0  0  0  0  0  0  0  0  0  0
   -2.2375    2.4313    0.4255 H   0  0  0  0  0  0  0  0  0  0  0  0
   -3.6802    1.7165    1.1261 H   0  0  0  0  0  0  0  0  0  0  0  0
   -2.1606    1.5676    1.9932 H   0  0  0  0  0  0  0  0  0  0  0  0
   -4.3498   -0.2518    0.0746 H   0  0  0  0  0  0  0  0  0  0  0  0
    2.6247   -1.5491   -0.9822 H   0  0  0  0  0  0  0  0  0  0  0  0
    0.6000   -2.7961   -1.5699 H   0  0  0  0  0  0  0  0  0  0  0  0
    4.8965    1.0338    0.3295 H   0  0  0  0  0  0  0  0  0  0  0  0
    4.2294    0.2405   -1.1047 H   0  0  0  0  0  0  0  0  0  0  0  0
    4.3067   -0.6283    0.4725 H   0  0  0  0  0  0  0  0  0  0  0  0
    1.0244    2.1557    1.1374 H   0  0  0  0  0  0  0  0  0  0  0  0
  1  2  1  0
  2  3  2  0
  3  4  1  0
  4  5  2  0
  4  6  1  0
  6  7  1  0
  7  8  2  0
  8  9  1  0
  9 10  2  0
 10 11  1  0
 11 12  2  0
 10 13  1  0
 13 14  2  0
 13 15  1  0
  9 16  1  0
  8  2  1  0
 12  7  1  0
  1 17  1  0
  1 18  1  0
  1 19  1  0
  3 20  1  0
 11 21  1  0
 12 22  1  0
 15 23  1  0
 15 24  1  0
 15 25  1  0
 16 26  1  0
M  END
>  <Name>  (26) 
Liqcoumarin

>  <PubChem ID>  (26) 
11378967

>  <CDB ID>  (26) 
CDB0026

>  <Smiles>  (26) 
CC1=CC(=O)OC2=C1C(=C(C=C2)C(=O)C)O

>  <Chemical class>  (26) 
5-Oxygenated Coumarins

>  <Natural source>  (26) 
Glycyrrhiza glabra

>  <Molecular Formula>  (26) 
C12H10O4

>  <InChI-Key>  (26) 
UMNMVZFOKSPTJN-UHFFFAOYSA-N

>  <Total Molweight>  (26) 
218.207

>  <cLogP>  (26) 
1.1011

>  <cLogS>  (26) 
-2.487

>  <H-Acceptors>  (26) 
4

>  <H-Donors>  (26) 
1

>  <Rotatable Bonds>  (26) 
1

>  <Polar Surface Area>  (26) 
63.6

$$$$
CDB0027
     RDKit          3D

 30 32  0  0  0  0  0  0  0  0999 V2000
    4.4986   -0.2458    0.4073 C   0  0  0  0  0  0  0  0  0  0  0  0
    3.1006    0.0489    0.4405 O   0  0  0  0  0  0  0  0  0  0  0  0
    2.3739   -0.6163   -0.4865 C   0  0  0  0  0  0  0  0  0  0  0  0
    2.7968   -1.4308   -1.2947 O   0  0  0  0  0  0  0  0  0  0  0  0
    0.9274   -0.3544   -0.3214 C   0  0  0  0  0  0  0  0  0  0  0  0
    0.0660   -1.4697   -0.4071 C   0  0  0  0  0  0  0  0  0  0  0  0
   -1.3244   -1.3522   -0.1843 C   0  0  0  0  0  0  0  0  0  0  0  0
   -2.1971   -2.4609   -0.2367 C   0  0  0  0  0  0  0  0  0  0  0  0
   -3.5664   -2.3231   -0.0087 C   0  0  0  0  0  0  0  0  0  0  0  0
   -4.0943   -1.0716    0.2759 C   0  0  0  0  0  0  0  0  0  0  0  0
   -3.2520    0.0390    0.3296 C   0  0  0  0  0  0  0  0  0  0  0  0
   -1.8626   -0.0789    0.1013 C   0  0  0  0  0  0  0  0  0  0  0  0
   -0.9836    1.0287    0.1345 C   0  0  0  0  0  0  0  0  0  0  0  0
    0.3980    0.9258   -0.0861 C   0  0  0  0  0  0  0  0  0  0  0  0
    1.1729    2.1688   -0.1033 C   0  0  0  0  0  0  0  0  0  0  0  0
    0.5955    3.3464    0.1512 C   0  0  0  0  0  0  0  0  0  0  0  0
   -0.8350    3.4706    0.4517 C   0  0  0  0  0  0  0  0  0  0  0  0
   -1.3370    4.5570    0.7093 O   0  0  0  0  0  0  0  0  0  0  0  0
   -1.5667    2.2972    0.4101 O   0  0  0  0  0  0  0  0  0  0  0  0
    0.5486   -2.7276   -0.7091 O   0  0  0  0  0  0  0  0  0  0  0  0
    4.9889    0.3511    1.1812 H   0  0  0  0  0  0  0  0  0  0  0  0
    4.9246    0.0268   -0.5633 H   0  0  0  0  0  0  0  0  0  0  0  0
    4.6710   -1.3047    0.6236 H   0  0  0  0  0  0  0  0  0  0  0  0
   -1.8038   -3.4526   -0.4560 H   0  0  0  0  0  0  0  0  0  0  0  0
   -4.2149   -3.1941   -0.0536 H   0  0  0  0  0  0  0  0  0  0  0  0
   -5.1601   -0.9555    0.4549 H   0  0  0  0  0  0  0  0  0  0  0  0
   -3.6931    1.0095    0.5517 H   0  0  0  0  0  0  0  0  0  0  0  0
    2.2299    2.1444   -0.3433 H   0  0  0  0  0  0  0  0  0  0  0  0
    1.1569    4.2730    0.1405 H   0  0  0  0  0  0  0  0  0  0  0  0
    1.4414   -2.6491   -1.1094 H   0  0  0  0  0  0  0  0  0  0  0  0
  1  2  1  0
  2  3  1  0
  3  4  2  0
  3  5  1  0
  5  6  2  0
  6  7  1  0
  7  8  2  0
  8  9  1  0
  9 10  2  0
 10 11  1  0
 11 12  2  0
 12 13  1  0
 13 14  2  0
 14 15  1  0
 15 16  2  0
 16 17  1  0
 17 18  2  0
 17 19  1  0
  6 20  1  0
 14  5  1  0
 12  7  1  0
 19 13  1  0
  1 21  1  0
  1 22  1  0
  1 23  1  0
  8 24  1  0
  9 25  1  0
 10 26  1  0
 11 27  1  0
 15 28  1  0
 16 29  1  0
 20 30  1  0
M  END
>  <Name>  (27) 
Rubilactone

>  <PubChem ID>  (27) 
132415

>  <CDB ID>  (27) 
CDB0027

>  <Smiles>  (27) 
COC(=O)C1=C(C2=CC=CC=C2C3=C1C=CC(=O)O3)O

>  <Chemical class>  (27) 
6-Oxygenated Coumarins

>  <Natural source>  (27) 
Rubia cordifolia

>  <Molecular Formula>  (27) 
C15H10O5

>  <InChI-Key>  (27) 
DYHKKGMKQBRCCG-UHFFFAOYSA-N

>  <Total Molweight>  (27) 
270.239

>  <cLogP>  (27) 
2.2591

>  <cLogS>  (27) 
-3.821

>  <H-Acceptors>  (27) 
5

>  <H-Donors>  (27) 
1

>  <Rotatable Bonds>  (27) 
2

>  <Polar Surface Area>  (27) 
72.83

$$$$
CDB0028
     RDKit          3D

 18 19  0  0  0  0  0  0  0  0999 V2000
   -0.6324    1.5305    0.4225 C   0  0  0  0  0  0  0  0  0  0  0  0
   -1.9359    1.1887    0.0491 C   0  0  0  0  0  0  0  0  0  0  0  0
   -2.2064   -0.0815   -0.4551 C   0  0  0  0  0  0  0  0  0  0  0  0
   -1.1953   -1.0242   -0.5953 C   0  0  0  0  0  0  0  0  0  0  0  0
    0.0983   -0.6681   -0.2188 C   0  0  0  0  0  0  0  0  0  0  0  0
    0.3968    0.5965    0.2889 C   0  0  0  0  0  0  0  0  0  0  0  0
    1.7684    0.9000    0.6617 C   0  0  0  0  0  0  0  0  0  0  0  0
    2.7128   -0.0338    0.5118 C   0  0  0  0  0  0  0  0  0  0  0  0
    2.4217   -1.3761   -0.0220 C   0  0  0  0  0  0  0  0  0  0  0  0
    3.3140   -2.2070   -0.1454 O   0  0  0  0  0  0  0  0  0  0  0  0
    1.1048   -1.6429   -0.3713 O   0  0  0  0  0  0  0  0  0  0  0  0
   -3.4941   -0.3623   -0.8036 O   0  0  0  0  0  0  0  0  0  0  0  0
   -0.4371    2.5255    0.8142 H   0  0  0  0  0  0  0  0  0  0  0  0
   -2.7406    1.9124    0.1512 H   0  0  0  0  0  0  0  0  0  0  0  0
   -1.3894   -2.0169   -0.9859 H   0  0  0  0  0  0  0  0  0  0  0  0
    2.0058    1.8815    1.0568 H   0  0  0  0  0  0  0  0  0  0  0  0
    3.7463    0.1520    0.7775 H   0  0  0  0  0  0  0  0  0  0  0  0
   -3.5377   -1.2743   -1.1365 H   0  0  0  0  0  0  0  0  0  0  0  0
  1  2  2  0
  2  3  1  0
  3  4  2  0
  4  5  1  0
  5  6  2  0
  6  7  1  0
  7  8  2  0
  8  9  1  0
  9 10  2  0
  9 11  1  0
  3 12  1  0
  6  1  1  0
 11  5  1  0
  1 13  1  0
  2 14  1  0
  4 15  1  0
  7 16  1  0
  8 17  1  0
 12 18  1  0
M  END
>  <Name>  (28) 
Umbelliferone

>  <PubChem ID>  (28) 
5281426

>  <CDB ID>  (28) 
CDB0028

>  <Smiles>  (28) 
C1=CC(=CC2=C1C=CC(=O)O2)O

>  <Chemical class>  (28) 
7-Oxygenated Coumarins

>  <Natural source>  (28) 
Ferula galbaniflua

>  <Molecular Formula>  (28) 
C9H6O3

>  <InChI-Key>  (28) 
ORHBXUUXSCNDEV-UHFFFAOYSA-N

>  <Total Molweight>  (28) 
162.144

>  <cLogP>  (28) 
1.1517

>  <cLogS>  (28) 
-2.074

>  <H-Acceptors>  (28) 
3

>  <H-Donors>  (28) 
1

>  <Rotatable Bonds>  (28) 
0

>  <Polar Surface Area>  (28) 
46.53

$$$$
CDB0029
     RDKit          3D

 36 37  0  0  0  0  0  0  0  0999 V2000
   -4.5373   -1.7502   -1.2102 C   0  0  0  0  0  0  0  0  0  0  0  0
   -3.0797   -1.4701   -0.9437 C   0  0  0  0  0  0  0  0  0  0  0  0
   -2.1824   -1.5032   -1.9516 C   0  0  0  0  0  0  0  0  0  0  0  0
   -0.6992   -1.2301   -1.9369 C   0  0  0  0  0  0  0  0  0  0  0  0
   -0.3578   -0.2855   -0.9291 O   0  0  0  0  0  0  0  0  0  0  0  0
    0.9631    0.0347   -0.7831 C   0  0  0  0  0  0  0  0  0  0  0  0
    1.2349    0.9370    0.2474 C   0  0  0  0  0  0  0  0  0  0  0  0
    2.5490    1.3341    0.4858 C   0  0  0  0  0  0  0  0  0  0  0  0
    3.6066    0.8532   -0.2808 C   0  0  0  0  0  0  0  0  0  0  0  0
    3.3344   -0.0472   -1.3108 C   0  0  0  0  0  0  0  0  0  0  0  0
    2.0166   -0.4548   -1.5615 C   0  0  0  0  0  0  0  0  0  0  0  0
    4.9559    1.3042    0.0154 C   0  0  0  0  0  0  0  0  0  0  0  0
    5.1536    2.1690    1.0148 C   0  0  0  0  0  0  0  0  0  0  0  0
    4.0502    2.6923    1.8404 C   0  0  0  0  0  0  0  0  0  0  0  0
    4.2755    3.4847    2.7481 O   0  0  0  0  0  0  0  0  0  0  0  0
    2.7719    2.2459    1.5367 O   0  0  0  0  0  0  0  0  0  0  0  0
   -2.7339   -1.2068    0.5052 C   0  0  0  0  0  0  0  0  0  0  0  0
   -3.0026    0.2379    0.9127 C   0  0  0  0  0  0  0  0  0  0  0  0
   -2.5058    0.4676    2.3134 C   0  0  0  0  0  0  0  0  0  0  0  0
   -1.7913    1.4132    2.6314 O   0  0  0  0  0  0  0  0  0  0  0  0
   -5.1505   -0.8907   -0.9216 H   0  0  0  0  0  0  0  0  0  0  0  0
   -4.8674   -2.6226   -0.6367 H   0  0  0  0  0  0  0  0  0  0  0  0
   -4.7346   -1.9558   -2.2676 H   0  0  0  0  0  0  0  0  0  0  0  0
   -2.5489   -1.7536   -2.9471 H   0  0  0  0  0  0  0  0  0  0  0  0
   -0.4277   -0.8179   -2.9166 H   0  0  0  0  0  0  0  0  0  0  0  0
   -0.1750   -2.1805   -1.7813 H   0  0  0  0  0  0  0  0  0  0  0  0
    0.4282    1.3297    0.8620 H   0  0  0  0  0  0  0  0  0  0  0  0
    4.1373   -0.4410   -1.9296 H   0  0  0  0  0  0  0  0  0  0  0  0
    1.8500   -1.1543   -2.3744 H   0  0  0  0  0  0  0  0  0  0  0  0
    5.7833    0.9331   -0.5786 H   0  0  0  0  0  0  0  0  0  0  0  0
    6.1420    2.5314    1.2697 H   0  0  0  0  0  0  0  0  0  0  0  0
   -1.6928   -1.4773    0.7166 H   0  0  0  0  0  0  0  0  0  0  0  0
   -3.3194   -1.8841    1.1418 H   0  0  0  0  0  0  0  0  0  0  0  0
   -2.5014    0.9443    0.2426 H   0  0  0  0  0  0  0  0  0  0  0  0
   -4.0757    0.4560    0.8991 H   0  0  0  0  0  0  0  0  0  0  0  0
   -2.8690   -0.2426    3.0760 H   0  0  0  0  0  0  0  0  0  0  0  0
  1  2  1  0
  2  3  2  3
  3  4  1  0
  4  5  1  0
  5  6  1  0
  6  7  2  0
  7  8  1  0
  8  9  2  0
  9 10  1  0
 10 11  2  0
  9 12  1  0
 12 13  2  0
 13 14  1  0
 14 15  2  0
 14 16  1  0
  2 17  1  0
 17 18  1  0
 18 19  1  0
 19 20  2  0
 11  6  1  0
 16  8  1  0
  1 21  1  0
  1 22  1  0
  1 23  1  0
  3 24  1  0
  4 25  1  0
  4 26  1  0
  7 27  1  0
 10 28  1  0
 11 29  1  0
 12 30  1  0
 13 31  1  0
 17 32  1  0
 17 33  1  0
 18 34  1  0
 18 35  1  0
 19 36  1  0
M  END
>  <Name>  (29) 
Marminal

>  <PubChem ID>  (29) 
131751651

>  <CDB ID>  (29) 
CDB0029

>  <Smiles>  (29) 
CC(=CCOC1=CC2=C(C=C1)C=CC(=O)O2)CCC=O

>  <Chemical class>  (29) 
7-Oxygenated Coumarins

>  <Natural source>  (29) 
Aegle marmelos

>  <Molecular Formula>  (29) 
C16H16O4

>  <InChI-Key>  (29) 
OGCYHMZGMPRXBS-UHFFFAOYSA-N

>  <Total Molweight>  (29) 
272.299

>  <cLogP>  (29) 
2.8665

>  <cLogS>  (29) 
-3.372

>  <H-Acceptors>  (29) 
4

>  <H-Donors>  (29) 
0

>  <Rotatable Bonds>  (29) 
6

>  <Polar Surface Area>  (29) 
52.6

$$$$
CDB0030
     RDKit          3D

 44 45  0  0  0  0  0  0  0  0999 V2000
   -3.5777   -1.8935   -0.9821 C   0  0  0  0  0  0  0  0  0  0  0  0
   -3.7111   -0.6931   -0.0816 C   0  0  0  0  0  0  0  0  0  0  0  0
   -3.7739    0.5491   -0.5997 C   0  0  0  0  0  0  0  0  0  0  0  0
   -3.9252    1.8549    0.1370 C   0  0  0  0  0  0  0  0  0  0  0  0
   -2.6359    2.6893    0.1482 C   0  0  0  0  0  0  0  0  0  0  0  0
   -1.5728    2.1608    1.0922 C   0  0  0  0  0  0  0  0  0  0  0  0
   -0.5300    1.3874    0.7251 C   0  0  0  0  0  0  0  0  0  0  0  0
   -0.2034    0.8611   -0.6444 C   0  0  0  0  0  0  0  0  0  0  0  0
    1.1695    1.1264   -0.9450 O   0  0  0  0  0  0  0  0  0  0  0  0
    2.0967    0.1484   -0.7172 C   0  0  0  0  0  0  0  0  0  0  0  0
    3.3401    0.3795   -1.3083 C   0  0  0  0  0  0  0  0  0  0  0  0
    4.3681   -0.5447   -1.1369 C   0  0  0  0  0  0  0  0  0  0  0  0
    4.1921   -1.6988   -0.3796 C   0  0  0  0  0  0  0  0  0  0  0  0
    2.9537   -1.9242    0.2212 C   0  0  0  0  0  0  0  0  0  0  0  0
    1.9106   -1.0015    0.0555 C   0  0  0  0  0  0  0  0  0  0  0  0
    5.3028   -2.6249   -0.2362 C   0  0  0  0  0  0  0  0  0  0  0  0
    6.4667   -2.3508   -0.8332 C   0  0  0  0  0  0  0  0  0  0  0  0
    6.6760   -1.1355   -1.6404 C   0  0  0  0  0  0  0  0  0  0  0  0
    7.7584   -0.9198   -2.1736 O   0  0  0  0  0  0  0  0  0  0  0  0
    5.6002   -0.2669   -1.7608 O   0  0  0  0  0  0  0  0  0  0  0  0
   -1.7393    2.5764    2.5322 C   0  0  0  0  0  0  0  0  0  0  0  0
   -3.7462   -1.0230    1.3850 C   0  0  0  0  0  0  0  0  0  0  0  0
   -2.6505   -2.4321   -0.7604 H   0  0  0  0  0  0  0  0  0  0  0  0
   -3.5565   -1.6185   -2.0419 H   0  0  0  0  0  0  0  0  0  0  0  0
   -4.4216   -2.5749   -0.8324 H   0  0  0  0  0  0  0  0  0  0  0  0
   -3.7238    0.6601   -1.6832 H   0  0  0  0  0  0  0  0  0  0  0  0
   -4.3041    1.7137    1.1535 H   0  0  0  0  0  0  0  0  0  0  0  0
   -4.7023    2.4298   -0.3835 H   0  0  0  0  0  0  0  0  0  0  0  0
   -2.2484    2.7927   -0.8713 H   0  0  0  0  0  0  0  0  0  0  0  0
   -2.8868    3.7139    0.4536 H   0  0  0  0  0  0  0  0  0  0  0  0
    0.1726    1.0764    1.4963 H   0  0  0  0  0  0  0  0  0  0  0  0
   -0.4538   -0.2015   -0.7337 H   0  0  0  0  0  0  0  0  0  0  0  0
   -0.7817    1.3692   -1.4200 H   0  0  0  0  0  0  0  0  0  0  0  0
    3.5045    1.2746   -1.9016 H   0  0  0  0  0  0  0  0  0  0  0  0
    2.7837   -2.8109    0.8273 H   0  0  0  0  0  0  0  0  0  0  0  0
    0.9703   -1.2064    0.5576 H   0  0  0  0  0  0  0  0  0  0  0  0
    5.1715   -3.5252    0.3534 H   0  0  0  0  0  0  0  0  0  0  0  0
    7.3200   -3.0132   -0.7524 H   0  0  0  0  0  0  0  0  0  0  0  0
   -2.6952    2.2187    2.9271 H   0  0  0  0  0  0  0  0  0  0  0  0
   -1.7135    3.6677    2.6173 H   0  0  0  0  0  0  0  0  0  0  0  0
   -0.9475    2.1765    3.1745 H   0  0  0  0  0  0  0  0  0  0  0  0
   -3.7695   -0.1426    2.0303 H   0  0  0  0  0  0  0  0  0  0  0  0
   -2.8560   -1.5985    1.6609 H   0  0  0  0  0  0  0  0  0  0  0  0
   -4.6310   -1.6262    1.6133 H   0  0  0  0  0  0  0  0  0  0  0  0
  1  2  1  0
  2  3  2  3
  3  4  1  0
  4  5  1  0
  5  6  1  0
  6  7  2  3
  7  8  1  0
  8  9  1  0
  9 10  1  0
 10 11  2  0
 11 12  1  0
 12 13  2  0
 13 14  1  0
 14 15  2  0
 13 16  1  0
 16 17  2  0
 17 18  1  0
 18 19  2  0
 18 20  1  0
  6 21  1  0
  2 22  1  0
 15 10  1  0
 20 12  1  0
  1 23  1  0
  1 24  1  0
  1 25  1  0
  3 26  1  0
  4 27  1  0
  4 28  1  0
  5 29  1  0
  5 30  1  0
  7 31  1  0
  8 32  1  0
  8 33  1  0
 11 34  1  0
 14 35  1  0
 15 36  1  0
 16 37  1  0
 17 38  1  0
 21 39  1  0
 21 40  1  0
 21 41  1  0
 22 42  1  0
 22 43  1  0
 22 44  1  0
M  END
>  <Name>  (30) 
Auraptene

>  <PubChem ID>  (30) 
1550607

>  <CDB ID>  (30) 
CDB0030

>  <Smiles>  (30) 
CC(=CCCC(=CCOC1=CC2=C(C=C1)C=CC(=O)O2)C)C

>  <Chemical class>  (30) 
7-Oxygenated Coumarins

>  <Natural source>  (30) 
Citrus aurantium

>  <Molecular Formula>  (30) 
C19H22O3

>  <InChI-Key>  (30) 
RSDDHGSKLOSQFK-UHFFFAOYSA-N

>  <Total Molweight>  (30) 
298.381

>  <cLogP>  (30) 
5.2685

>  <cLogS>  (30) 
-4.1

>  <H-Acceptors>  (30) 
3

>  <H-Donors>  (30) 
0

>  <Rotatable Bonds>  (30) 
6

>  <Polar Surface Area>  (30) 
35.53

$$$$
CDB0031
     RDKit          3D

 45 46  0  0  0  0  0  0  0  0999 V2000
   -5.4635    1.3102   -0.5164 C   0  0  0  0  0  0  0  0  0  0  0  0
   -4.5672    0.5221    0.3980 C   0  0  0  0  0  0  0  0  0  0  0  0
   -5.2393    0.0429    1.6591 C   0  0  0  0  0  0  0  0  0  0  0  0
   -3.2734    0.2279    0.1601 C   0  0  0  0  0  0  0  0  0  0  0  0
   -2.4240    0.6248   -1.0152 C   0  0  1  0  0  0  0  0  0  0  0  0
   -1.2357    1.2349   -0.5089 O   0  0  0  0  0  0  0  0  0  0  0  0
   -2.0514   -0.5292   -1.9753 C   0  0  0  0  0  0  0  0  0  0  0  0
   -1.5744   -1.8335   -1.3507 C   0  0  0  0  0  0  0  0  0  0  0  0
   -2.6387   -2.8880   -1.1726 C   0  0  0  0  0  0  0  0  0  0  0  0
   -0.2964   -2.1007   -1.0114 C   0  0  0  0  0  0  0  0  0  0  0  0
    0.8999   -1.2004   -1.1222 C   0  0  0  0  0  0  0  0  0  0  0  0
    1.5276   -1.1743    0.1607 O   0  0  0  0  0  0  0  0  0  0  0  0
    2.6486   -0.4033    0.2948 C   0  0  0  0  0  0  0  0  0  0  0  0
    3.2142   -0.4175    1.5709 C   0  0  0  0  0  0  0  0  0  0  0  0
    4.3609    0.3311    1.8248 C   0  0  0  0  0  0  0  0  0  0  0  0
    4.9643    1.0996    0.8337 C   0  0  0  0  0  0  0  0  0  0  0  0
    6.1589    1.8600    1.1598 C   0  0  0  0  0  0  0  0  0  0  0  0
    6.6524    1.8064    2.4007 C   0  0  0  0  0  0  0  0  0  0  0  0
    6.0305    0.9998    3.4661 C   0  0  0  0  0  0  0  0  0  0  0  0
    6.5131    0.9766    4.5926 O   0  0  0  0  0  0  0  0  0  0  0  0
    4.8912    0.2826    3.1291 O   0  0  0  0  0  0  0  0  0  0  0  0
    4.3991    1.1139   -0.4415 C   0  0  0  0  0  0  0  0  0  0  0  0
    3.2447    0.3645   -0.7100 C   0  0  0  0  0  0  0  0  0  0  0  0
   -5.7592    2.2484   -0.0358 H   0  0  0  0  0  0  0  0  0  0  0  0
   -6.3699    0.7369   -0.7392 H   0  0  0  0  0  0  0  0  0  0  0  0
   -5.0008    1.5561   -1.4743 H   0  0  0  0  0  0  0  0  0  0  0  0
   -5.6124    0.8953    2.2361 H   0  0  0  0  0  0  0  0  0  0  0  0
   -4.5592   -0.5228    2.3046 H   0  0  0  0  0  0  0  0  0  0  0  0
   -6.0840   -0.6093    1.4143 H   0  0  0  0  0  0  0  0  0  0  0  0
   -2.7370   -0.3690    0.8997 H   0  0  0  0  0  0  0  0  0  0  0  0
   -2.9107    1.4026   -1.6101 H   0  0  0  0  0  0  0  0  0  0  0  0
   -1.5034    1.8092    0.2288 H   0  0  0  0  0  0  0  0  0  0  0  0
   -1.2839   -0.1721   -2.6742 H   0  0  0  0  0  0  0  0  0  0  0  0
   -2.9268   -0.7528   -2.6003 H   0  0  0  0  0  0  0  0  0  0  0  0
   -2.2403   -3.8089   -0.7333 H   0  0  0  0  0  0  0  0  0  0  0  0
   -3.0771   -3.1491   -2.1415 H   0  0  0  0  0  0  0  0  0  0  0  0
   -3.4375   -2.5319   -0.5162 H   0  0  0  0  0  0  0  0  0  0  0  0
   -0.0621   -3.0787   -0.5926 H   0  0  0  0  0  0  0  0  0  0  0  0
    1.5861   -1.6348   -1.8592 H   0  0  0  0  0  0  0  0  0  0  0  0
    0.6253   -0.1899   -1.4327 H   0  0  0  0  0  0  0  0  0  0  0  0
    2.7607   -1.0084    2.3615 H   0  0  0  0  0  0  0  0  0  0  0  0
    6.6327    2.4605    0.3914 H   0  0  0  0  0  0  0  0  0  0  0  0
    7.5401    2.3572    2.6866 H   0  0  0  0  0  0  0  0  0  0  0  0
    4.8428    1.7047   -1.2393 H   0  0  0  0  0  0  0  0  0  0  0  0
    2.8352    0.4063   -1.7143 H   0  0  0  0  0  0  0  0  0  0  0  0
  1  2  1  0
  2  3  1  0
  2  4  2  3
  4  5  1  0
  5  6  1  0
  5  7  1  0
  7  8  1  0
  8  9  1  0
  8 10  2  3
 10 11  1  0
 11 12  1  0
 12 13  1  0
 13 14  2  0
 14 15  1  0
 15 16  2  0
 16 17  1  0
 17 18  2  0
 18 19  1  0
 19 20  2  0
 19 21  1  0
 16 22  1  0
 22 23  2  0
 23 13  1  0
 21 15  1  0
  1 24  1  0
  1 25  1  0
  1 26  1  0
  3 27  1  0
  3 28  1  0
  3 29  1  0
  4 30  1  0
  5 31  1  6
  6 32  1  0
  7 33  1  0
  7 34  1  0
  9 35  1  0
  9 36  1  0
  9 37  1  0
 10 38  1  0
 11 39  1  0
 11 40  1  0
 14 41  1  0
 17 42  1  0
 18 43  1  0
 22 44  1  0
 23 45  1  0
M  END
>  <Name>  (31) 
Anisocoumarin H

>  <PubChem ID>  (31) 
14376449

>  <CDB ID>  (31) 
CDB0031

>  <Smiles>  (31) 
CC(C)=C[C@@H](O)CC(C)=CCOC1=CC2=C(C=CC(=O)O2)C=C1

>  <Chemical class>  (31) 
7-Oxygenated Coumarins

>  <Natural source>  (31) 
Baccharis darwinii

>  <Molecular Formula>  (31) 
C19H22O4

>  <InChI-Key>  (31) 
VNADFOGBKXRWGC-MRXNPFEDSA-N

>  <Total Molweight>  (31) 
314.38

>  <cLogP>  (31) 
4.2467

>  <cLogS>  (31) 
-3.701

>  <H-Acceptors>  (31) 
4

>  <H-Donors>  (31) 
1

>  <Rotatable Bonds>  (31) 
6

>  <Polar Surface Area>  (31) 
55.76

$$$$
CDB0032
     RDKit          3D

 43 44  0  0  0  0  0  0  0  0999 V2000
   -5.0499   -0.4204   -1.3942 C   0  0  0  0  0  0  0  0  0  0  0  0
   -3.7868   -1.0558   -0.8797 C   0  0  0  0  0  0  0  0  0  0  0  0
   -2.6767   -0.3927   -0.5033 C   0  0  0  0  0  0  0  0  0  0  0  0
   -2.5089    1.0940   -0.4723 C   0  0  0  0  0  0  0  0  0  0  0  0
   -3.4673    1.8396   -0.2778 O   0  0  0  0  0  0  0  0  0  0  0  0
   -1.0980    1.6186   -0.7262 C   0  0  0  0  0  0  0  0  0  0  0  0
   -0.7190    2.7165    0.2413 C   0  0  0  0  0  0  0  0  0  0  0  0
   -0.2443    2.5475    1.4938 C   0  0  0  0  0  0  0  0  0  0  0  0
    0.0395    1.3123    2.3093 C   0  0  0  0  0  0  0  0  0  0  0  0
   -0.0316    0.0904    1.5782 O   0  0  0  0  0  0  0  0  0  0  0  0
    1.1651   -0.4987    1.2712 C   0  0  0  0  0  0  0  0  0  0  0  0
    2.3231    0.1964    0.9289 C   0  0  0  0  0  0  0  0  0  0  0  0
    3.4692   -0.5245    0.5957 C   0  0  0  0  0  0  0  0  0  0  0  0
    3.4859   -1.9180    0.5824 C   0  0  0  0  0  0  0  0  0  0  0  0
    2.3173   -2.6075    0.9052 C   0  0  0  0  0  0  0  0  0  0  0  0
    1.1596   -1.8969    1.2406 C   0  0  0  0  0  0  0  0  0  0  0  0
    4.7157   -2.6051    0.2256 C   0  0  0  0  0  0  0  0  0  0  0  0
    5.8017   -1.8906   -0.0851 C   0  0  0  0  0  0  0  0  0  0  0  0
    5.8076   -0.4169   -0.0827 C   0  0  0  0  0  0  0  0  0  0  0  0
    6.8227    0.2046   -0.3741 O   0  0  0  0  0  0  0  0  0  0  0  0
    4.6211    0.2161    0.2618 O   0  0  0  0  0  0  0  0  0  0  0  0
   -0.9432    4.1099   -0.2964 C   0  0  0  0  0  0  0  0  0  0  0  0
   -3.8322   -2.5593   -0.8120 C   0  0  0  0  0  0  0  0  0  0  0  0
   -5.8194   -0.4259   -0.6159 H   0  0  0  0  0  0  0  0  0  0  0  0
   -4.9087    0.6056   -1.7410 H   0  0  0  0  0  0  0  0  0  0  0  0
   -5.4303   -0.9817   -2.2551 H   0  0  0  0  0  0  0  0  0  0  0  0
   -1.7976   -0.9426   -0.1817 H   0  0  0  0  0  0  0  0  0  0  0  0
   -1.0774    1.9947   -1.7571 H   0  0  0  0  0  0  0  0  0  0  0  0
   -0.3679    0.8073   -0.7116 H   0  0  0  0  0  0  0  0  0  0  0  0
   -0.0455    3.4525    2.0704 H   0  0  0  0  0  0  0  0  0  0  0  0
    0.9934    1.4221    2.8411 H   0  0  0  0  0  0  0  0  0  0  0  0
   -0.7270    1.2517    3.0911 H   0  0  0  0  0  0  0  0  0  0  0  0
    2.3503    1.2803    0.8935 H   0  0  0  0  0  0  0  0  0  0  0  0
    2.2900   -3.6943    0.8986 H   0  0  0  0  0  0  0  0  0  0  0  0
    0.2491   -2.4378    1.4885 H   0  0  0  0  0  0  0  0  0  0  0  0
    4.7351   -3.6893    0.2164 H   0  0  0  0  0  0  0  0  0  0  0  0
    6.7378   -2.3633   -0.3565 H   0  0  0  0  0  0  0  0  0  0  0  0
   -0.3235    4.2763   -1.1837 H   0  0  0  0  0  0  0  0  0  0  0  0
   -1.9931    4.2493   -0.5733 H   0  0  0  0  0  0  0  0  0  0  0  0
   -0.6890    4.8857    0.4336 H   0  0  0  0  0  0  0  0  0  0  0  0
   -4.6533   -2.8839   -0.1645 H   0  0  0  0  0  0  0  0  0  0  0  0
   -3.9877   -2.9808   -1.8105 H   0  0  0  0  0  0  0  0  0  0  0  0
   -2.9061   -2.9857   -0.4118 H   0  0  0  0  0  0  0  0  0  0  0  0
  1  2  1  0
  2  3  2  3
  3  4  1  0
  4  5  2  0
  4  6  1  0
  6  7  1  0
  7  8  2  3
  8  9  1  0
  9 10  1  0
 10 11  1  0
 11 12  2  0
 12 13  1  0
 13 14  2  0
 14 15  1  0
 15 16  2  0
 14 17  1  0
 17 18  2  0
 18 19  1  0
 19 20  2  0
 19 21  1  0
  7 22  1  0
  2 23  1  0
 16 11  1  0
 21 13  1  0
  1 24  1  0
  1 25  1  0
  1 26  1  0
  3 27  1  0
  6 28  1  0
  6 29  1  0
  8 30  1  0
  9 31  1  0
  9 32  1  0
 12 33  1  0
 15 34  1  0
 16 35  1  0
 17 36  1  0
 18 37  1  0
 22 38  1  0
 22 39  1  0
 22 40  1  0
 23 41  1  0
 23 42  1  0
 23 43  1  0
M  END
>  <Name>  (32) 
Diversinin

>  <PubChem ID>  (32) 
71588802

>  <CDB ID>  (32) 
CDB0032

>  <Smiles>  (32) 
CC(=CC(=O)CC(=CCOC1=CC2=C(C=C1)C=CC(=O)O2)C)C

>  <Chemical class>  (32) 
7-Oxygenated Coumarins

>  <Natural source>  (32) 
Ferula diversivittata

>  <Molecular Formula>  (32) 
C19H20O4

>  <InChI-Key>  (32) 
JONVYPGHELSEDP-UHFFFAOYSA-N

>  <Total Molweight>  (32) 
312.364

>  <cLogP>  (32) 
4.2155

>  <cLogS>  (32) 
-3.752

>  <H-Acceptors>  (32) 
4

>  <H-Donors>  (32) 
0

>  <Rotatable Bonds>  (32) 
6

>  <Polar Surface Area>  (32) 
52.6

$$$$
CDB0033
     RDKit          3D

 43 44  0  0  0  0  0  0  0  0999 V2000
    6.6436    1.1581   -0.2624 C   0  0  0  0  0  0  0  0  0  0  0  0
    6.0356   -0.1787    0.0652 C   0  0  0  0  0  0  0  0  0  0  0  0
    6.3440   -1.2829   -0.6354 C   0  0  0  0  0  0  0  0  0  0  0  0
    5.0940   -0.2166    1.2441 C   0  0  0  0  0  0  0  0  0  0  0  0
    3.7983    0.5243    0.9443 C   0  0  0  0  0  0  0  0  0  0  0  0
    3.6692    1.7246    1.1749 O   0  0  0  0  0  0  0  0  0  0  0  0
    2.7057   -0.2754    0.3068 C   0  0  0  0  0  0  0  0  0  0  0  0
    1.3849   -0.0352    0.4269 C   0  0  0  0  0  0  0  0  0  0  0  0
    0.7896    1.0437    1.2947 C   0  0  0  0  0  0  0  0  0  0  0  0
    0.3801   -0.9054   -0.3125 C   0  0  0  0  0  0  0  0  0  0  0  0
   -0.3948   -0.1564   -1.4065 C   0  0  0  0  0  0  0  0  0  0  0  0
   -1.4016    0.6998   -0.8644 O   0  0  0  0  0  0  0  0  0  0  0  0
   -2.6320    0.1848   -0.5717 C   0  0  0  0  0  0  0  0  0  0  0  0
   -3.5529    1.1250   -0.1056 C   0  0  0  0  0  0  0  0  0  0  0  0
   -4.8427    0.7211    0.2312 C   0  0  0  0  0  0  0  0  0  0  0  0
   -5.2434   -0.6063    0.1175 C   0  0  0  0  0  0  0  0  0  0  0  0
   -4.3230   -1.5468   -0.3449 C   0  0  0  0  0  0  0  0  0  0  0  0
   -3.0213   -1.1523   -0.6875 C   0  0  0  0  0  0  0  0  0  0  0  0
   -6.6024   -0.9672    0.4844 C   0  0  0  0  0  0  0  0  0  0  0  0
   -7.4372   -0.0197    0.9221 C   0  0  0  0  0  0  0  0  0  0  0  0
   -7.0351    1.3925    1.0507 C   0  0  0  0  0  0  0  0  0  0  0  0
   -7.8302    2.2326    1.4560 O   0  0  0  0  0  0  0  0  0  0  0  0
   -5.7319    1.7106    0.6943 O   0  0  0  0  0  0  0  0  0  0  0  0
    7.1564    1.5675    0.6141 H   0  0  0  0  0  0  0  0  0  0  0  0
    5.8723    1.8667   -0.5793 H   0  0  0  0  0  0  0  0  0  0  0  0
    7.3785    1.0860   -1.0713 H   0  0  0  0  0  0  0  0  0  0  0  0
    5.9247   -2.2541   -0.3906 H   0  0  0  0  0  0  0  0  0  0  0  0
    7.0352   -1.2471   -1.4733 H   0  0  0  0  0  0  0  0  0  0  0  0
    4.8509   -1.2458    1.5358 H   0  0  0  0  0  0  0  0  0  0  0  0
    5.5611    0.2408    2.1243 H   0  0  0  0  0  0  0  0  0  0  0  0
    3.0636   -1.1036   -0.2974 H   0  0  0  0  0  0  0  0  0  0  0  0
    1.4519    1.3456    2.1103 H   0  0  0  0  0  0  0  0  0  0  0  0
    0.5463    1.9261    0.6953 H   0  0  0  0  0  0  0  0  0  0  0  0
   -0.1291    0.6855    1.7722 H   0  0  0  0  0  0  0  0  0  0  0  0
   -0.3041   -1.3436    0.4231 H   0  0  0  0  0  0  0  0  0  0  0  0
    0.9030   -1.7444   -0.7889 H   0  0  0  0  0  0  0  0  0  0  0  0
    0.2939    0.4844   -1.9705 H   0  0  0  0  0  0  0  0  0  0  0  0
   -0.8177   -0.8487   -2.1436 H   0  0  0  0  0  0  0  0  0  0  0  0
   -3.2650    2.1680   -0.0066 H   0  0  0  0  0  0  0  0  0  0  0  0
   -4.6019   -2.5933   -0.4437 H   0  0  0  0  0  0  0  0  0  0  0  0
   -2.3384   -1.9198   -1.0354 H   0  0  0  0  0  0  0  0  0  0  0  0
   -6.9203   -2.0002    0.3978 H   0  0  0  0  0  0  0  0  0  0  0  0
   -8.4580   -0.2444    1.2060 H   0  0  0  0  0  0  0  0  0  0  0  0
  1  2  1  0
  2  3  2  0
  2  4  1  0
  4  5  1  0
  5  6  2  0
  5  7  1  0
  7  8  2  3
  8  9  1  0
  8 10  1  0
 10 11  1  0
 11 12  1  0
 12 13  1  0
 13 14  2  0
 14 15  1  0
 15 16  2  0
 16 17  1  0
 17 18  2  0
 16 19  1  0
 19 20  2  0
 20 21  1  0
 21 22  2  0
 21 23  1  0
 18 13  1  0
 23 15  1  0
  1 24  1  0
  1 25  1  0
  1 26  1  0
  3 27  1  0
  3 28  1  0
  4 29  1  0
  4 30  1  0
  7 31  1  0
  9 32  1  0
  9 33  1  0
  9 34  1  0
 10 35  1  0
 10 36  1  0
 11 37  1  0
 11 38  1  0
 14 39  1  0
 17 40  1  0
 18 41  1  0
 19 42  1  0
 20 43  1  0
M  END
>  <Name>  (33) 
Diversin

>  <PubChem ID>  (33) 
13800313

>  <CDB ID>  (33) 
CDB0033

>  <Smiles>  (33) 
CC(=C)CC(=O)C=C(C)CCOC1=CC2=C(C=C1)C=CC(=O)O2

>  <Chemical class>  (33) 
7-Oxygenated Coumarins

>  <Natural source>  (33) 
Ferula diversivittata

>  <Molecular Formula>  (33) 
C19H20O4

>  <InChI-Key>  (33) 
MHBHKIGMBRHPJH-UHFFFAOYSA-N

>  <Total Molweight>  (33) 
312.364

>  <cLogP>  (33) 
4.2822

>  <cLogS>  (33) 
-3.919

>  <H-Acceptors>  (33) 
4

>  <H-Donors>  (33) 
0

>  <Rotatable Bonds>  (33) 
7

>  <Polar Surface Area>  (33) 
52.6

$$$$
CDB0034
     RDKit          3D

 46 47  0  0  0  0  0  0  0  0999 V2000
    3.6345    2.2358    0.8904 C   0  0  0  0  0  0  0  0  0  0  0  0
    4.5536    1.0436    0.8666 C   0  0  0  0  0  0  0  0  0  0  0  0
    4.3965   -0.0379    0.0755 C   0  0  0  0  0  0  0  0  0  0  0  0
    3.3358   -0.2852   -0.9616 C   0  0  1  0  0  0  0  0  0  0  0  0
    4.0243   -0.6598   -2.1544 O   0  0  0  0  0  0  0  0  0  0  0  0
    2.3896   -1.4197   -0.5278 C   0  0  0  0  0  0  0  0  0  0  0  0
    1.1117   -1.4769   -1.3495 C   0  0  0  0  0  0  0  0  0  0  0  0
    1.2109   -2.2692   -2.6289 C   0  0  0  0  0  0  0  0  0  0  0  0
   -0.0577   -0.9090   -0.9870 C   0  0  0  0  0  0  0  0  0  0  0  0
   -0.3463   -0.0701    0.2264 C   0  0  0  0  0  0  0  0  0  0  0  0
   -1.2789   -0.7431    1.0722 O   0  0  0  0  0  0  0  0  0  0  0  0
   -2.6145   -0.4946    0.9275 C   0  0  0  0  0  0  0  0  0  0  0  0
   -3.2160    0.2335   -0.0960 C   0  0  0  0  0  0  0  0  0  0  0  0
   -4.6041    0.3853   -0.0977 C   0  0  0  0  0  0  0  0  0  0  0  0
   -5.4112   -0.1728    0.8908 C   0  0  0  0  0  0  0  0  0  0  0  0
   -6.8492    0.0254    0.8245 C   0  0  0  0  0  0  0  0  0  0  0  0
   -7.3690    0.7366   -0.1805 C   0  0  0  0  0  0  0  0  0  0  0  0
   -6.5373    1.3367   -1.2386 C   0  0  0  0  0  0  0  0  0  0  0  0
   -7.0489    1.9841   -2.1447 O   0  0  0  0  0  0  0  0  0  0  0  0
   -5.1668    1.1323   -1.1534 O   0  0  0  0  0  0  0  0  0  0  0  0
   -4.8087   -0.9072    1.9097 C   0  0  0  0  0  0  0  0  0  0  0  0
   -3.4183   -1.0664    1.9223 C   0  0  0  0  0  0  0  0  0  0  0  0
    5.6965    1.1182    1.8477 C   0  0  0  0  0  0  0  0  0  0  0  0
    6.5492    2.1916    1.4827 O   0  0  0  0  0  0  0  0  0  0  0  0
    2.7179    2.0873    0.3153 H   0  0  0  0  0  0  0  0  0  0  0  0
    4.1445    3.1172    0.4888 H   0  0  0  0  0  0  0  0  0  0  0  0
    3.3267    2.4538    1.9188 H   0  0  0  0  0  0  0  0  0  0  0  0
    5.1130   -0.8556    0.1671 H   0  0  0  0  0  0  0  0  0  0  0  0
    2.7638    0.6182   -1.1911 H   0  0  0  0  0  0  0  0  0  0  0  0
    4.5407    0.1166   -2.4300 H   0  0  0  0  0  0  0  0  0  0  0  0
    2.1372   -1.3134    0.5339 H   0  0  0  0  0  0  0  0  0  0  0  0
    2.9004   -2.3887   -0.6104 H   0  0  0  0  0  0  0  0  0  0  0  0
    1.5422   -3.2915   -2.4192 H   0  0  0  0  0  0  0  0  0  0  0  0
    1.9232   -1.8043   -3.3166 H   0  0  0  0  0  0  0  0  0  0  0  0
    0.2492   -2.3368   -3.1489 H   0  0  0  0  0  0  0  0  0  0  0  0
   -0.9159   -1.0438   -1.6437 H   0  0  0  0  0  0  0  0  0  0  0  0
   -0.6809    0.9341   -0.0568 H   0  0  0  0  0  0  0  0  0  0  0  0
    0.5540    0.0913    0.8259 H   0  0  0  0  0  0  0  0  0  0  0  0
   -2.6501    0.6815   -0.9040 H   0  0  0  0  0  0  0  0  0  0  0  0
   -7.4805   -0.4078    1.5924 H   0  0  0  0  0  0  0  0  0  0  0  0
   -8.4351    0.9077   -0.2673 H   0  0  0  0  0  0  0  0  0  0  0  0
   -5.4019   -1.3630    2.6982 H   0  0  0  0  0  0  0  0  0  0  0  0
   -2.9529   -1.6441    2.7186 H   0  0  0  0  0  0  0  0  0  0  0  0
    6.2924    0.1997    1.8694 H   0  0  0  0  0  0  0  0  0  0  0  0
    5.3240    1.2949    2.8618 H   0  0  0  0  0  0  0  0  0  0  0  0
    6.8122    2.0354    0.5600 H   0  0  0  0  0  0  0  0  0  0  0  0
  1  2  1  0
  2  3  2  3
  3  4  1  0
  4  5  1  0
  4  6  1  0
  6  7  1  0
  7  8  1  0
  7  9  2  3
  9 10  1  0
 10 11  1  0
 11 12  1  0
 12 13  2  0
 13 14  1  0
 14 15  2  0
 15 16  1  0
 16 17  2  0
 17 18  1  0
 18 19  2  0
 18 20  1  0
 15 21  1  0
 21 22  2  0
  2 23  1  0
 23 24  1  0
 22 12  1  0
 20 14  1  0
  1 25  1  0
  1 26  1  0
  1 27  1  0
  3 28  1  0
  4 29  1  6
  5 30  1  0
  6 31  1  0
  6 32  1  0
  8 33  1  0
  8 34  1  0
  8 35  1  0
  9 36  1  0
 10 37  1  0
 10 38  1  0
 13 39  1  0
 16 40  1  0
 17 41  1  0
 21 42  1  0
 22 43  1  0
 23 44  1  0
 23 45  1  0
 24 46  1  0
M  END
>  <Name>  (34) 
Excavatin A

>  <PubChem ID>  (34) 
15485577

>  <CDB ID>  (34) 
CDB0034

>  <Smiles>  (34) 
CC(=C[C@@H](O)CC(C)=CCOC1=CC2=C(C=CC(=O)O2)C=C1)CO

>  <Chemical class>  (34) 
7-Oxygenated Coumarins

>  <Natural source>  (34) 
Clausena excavata

>  <Molecular Formula>  (34) 
C19H22O5

>  <InChI-Key>  (34) 
IMLYNABZONYGFI-INIZCTEOSA-N

>  <Total Molweight>  (34) 
330.379

>  <cLogP>  (34) 
3.32

>  <cLogS>  (34) 
-3.194

>  <H-Acceptors>  (34) 
5

>  <H-Donors>  (34) 
2

>  <Rotatable Bonds>  (34) 
7

>  <Polar Surface Area>  (34) 
75.99

$$$$
CDB0035
     RDKit          3D

 48 49  0  0  0  0  0  0  0  0999 V2000
   -0.2886    1.5046   -1.3600 C   0  0  0  0  0  0  0  0  0  0  0  0
   -0.4969    0.0362   -1.0993 C   0  0  0  0  0  0  0  0  0  0  0  0
    0.2380   -0.9566   -1.6414 C   0  0  0  0  0  0  0  0  0  0  0  0
    1.3996   -0.8500   -2.5880 C   0  0  0  0  0  0  0  0  0  0  0  0
    2.4311   -1.7634   -2.2003 O   0  0  0  0  0  0  0  0  0  0  0  0
    3.3679   -1.3511   -1.2943 C   0  0  0  0  0  0  0  0  0  0  0  0
    3.3326   -0.1762   -0.5481 C   0  0  0  0  0  0  0  0  0  0  0  0
    4.3695    0.0930    0.3469 C   0  0  0  0  0  0  0  0  0  0  0  0
    5.4413   -0.7794    0.5208 C   0  0  0  0  0  0  0  0  0  0  0  0
    6.4860   -0.4347    1.4703 C   0  0  0  0  0  0  0  0  0  0  0  0
    6.3975    0.7075    2.1587 C   0  0  0  0  0  0  0  0  0  0  0  0
    5.2724    1.6451    1.9954 C   0  0  0  0  0  0  0  0  0  0  0  0
    5.2240    2.6825    2.6462 O   0  0  0  0  0  0  0  0  0  0  0  0
    4.2891    1.2947    1.0806 O   0  0  0  0  0  0  0  0  0  0  0  0
    5.4722   -1.9576   -0.2221 C   0  0  0  0  0  0  0  0  0  0  0  0
    4.4375   -2.2390   -1.1216 C   0  0  0  0  0  0  0  0  0  0  0  0
   -1.6147   -0.2900   -0.1256 C   0  0  0  0  0  0  0  0  0  0  0  0
   -3.0024   -0.1867   -0.7694 C   0  0  0  0  0  0  0  0  0  0  0  0
   -4.1425   -0.5004    0.2167 C   0  0  2  0  0  0  0  0  0  0  0  0
   -5.1832   -1.1196   -0.5683 O   0  0  0  0  0  0  0  0  0  0  0  0
   -4.7705    0.7400    0.9217 C   0  0  0  0  0  0  0  0  0  0  0  0
   -3.7553    1.6014    1.6691 C   0  0  0  0  0  0  0  0  0  0  0  0
   -5.8815    0.3119    1.8907 C   0  0  0  0  0  0  0  0  0  0  0  0
   -5.3890    1.5693   -0.0736 O   0  0  0  0  0  0  0  0  0  0  0  0
    0.5167    1.7086   -2.0686 H   0  0  0  0  0  0  0  0  0  0  0  0
   -1.1970    1.9544   -1.7722 H   0  0  0  0  0  0  0  0  0  0  0  0
   -0.0421    2.0200   -0.4259 H   0  0  0  0  0  0  0  0  0  0  0  0
   -0.0139   -1.9857   -1.3857 H   0  0  0  0  0  0  0  0  0  0  0  0
    1.0551   -1.1830   -3.5739 H   0  0  0  0  0  0  0  0  0  0  0  0
    1.7951    0.1593   -2.7305 H   0  0  0  0  0  0  0  0  0  0  0  0
    2.5208    0.5364   -0.6258 H   0  0  0  0  0  0  0  0  0  0  0  0
    7.3230   -1.1103    1.6068 H   0  0  0  0  0  0  0  0  0  0  0  0
    7.1539    1.0018    2.8759 H   0  0  0  0  0  0  0  0  0  0  0  0
    6.2887   -2.6669   -0.1142 H   0  0  0  0  0  0  0  0  0  0  0  0
    4.4647   -3.1617   -1.6977 H   0  0  0  0  0  0  0  0  0  0  0  0
   -1.5246    0.3696    0.7427 H   0  0  0  0  0  0  0  0  0  0  0  0
   -1.4845   -1.3074    0.2668 H   0  0  0  0  0  0  0  0  0  0  0  0
   -3.1535    0.8024   -1.2168 H   0  0  0  0  0  0  0  0  0  0  0  0
   -3.0434   -0.8951   -1.6085 H   0  0  0  0  0  0  0  0  0  0  0  0
   -3.8059   -1.2376    0.9555 H   0  0  0  0  0  0  0  0  0  0  0  0
   -5.6936   -1.6966    0.0269 H   0  0  0  0  0  0  0  0  0  0  0  0
   -3.2003    1.0181    2.4105 H   0  0  0  0  0  0  0  0  0  0  0  0
   -4.2543    2.4279    2.1891 H   0  0  0  0  0  0  0  0  0  0  0  0
   -3.0488    2.0754    0.9799 H   0  0  0  0  0  0  0  0  0  0  0  0
   -6.3316    1.1854    2.3770 H   0  0  0  0  0  0  0  0  0  0  0  0
   -6.7010   -0.1920    1.3671 H   0  0  0  0  0  0  0  0  0  0  0  0
   -5.4984   -0.3564    2.6685 H   0  0  0  0  0  0  0  0  0  0  0  0
   -5.7590    0.9516   -0.7368 H   0  0  0  0  0  0  0  0  0  0  0  0
  1  2  1  0
  2  3  2  3
  3  4  1  0
  4  5  1  0
  5  6  1  0
  6  7  2  0
  7  8  1  0
  8  9  2  0
  9 10  1  0
 10 11  2  0
 11 12  1  0
 12 13  2  0
 12 14  1  0
  9 15  1  0
 15 16  2  0
  2 17  1  0
 17 18  1  0
 18 19  1  0
 19 20  1  0
 19 21  1  0
 21 22  1  0
 21 23  1  0
 21 24  1  0
 16  6  1  0
 14  8  1  0
  1 25  1  0
  1 26  1  0
  1 27  1  0
  3 28  1  0
  4 29  1  0
  4 30  1  0
  7 31  1  0
 10 32  1  0
 11 33  1  0
 15 34  1  0
 16 35  1  0
 17 36  1  0
 17 37  1  0
 18 38  1  0
 18 39  1  0
 19 40  1  1
 20 41  1  0
 22 42  1  0
 22 43  1  0
 22 44  1  0
 23 45  1  0
 23 46  1  0
 23 47  1  0
 24 48  1  0
M  END
>  <Name>  (35) 
Marmin

>  <PubChem ID>  (35) 
6450230

>  <CDB ID>  (35) 
CDB0035

>  <Smiles>  (35) 
CC(=CCOC1=CC2=C(C=CC(=O)O2)C=C1)CC[C@H](O)C(C)(C)O

>  <Chemical class>  (35) 
7-Oxygenated Coumarins

>  <Natural source>  (35) 
Aegle marmelos

>  <Molecular Formula>  (35) 
C19H24O5

>  <InChI-Key>  (35) 
QYYKWTUUCOTGNS-KRWDZBQOSA-N

>  <Total Molweight>  (35) 
332.395

>  <cLogP>  (35) 
3.2513

>  <cLogS>  (35) 
-3.515

>  <H-Acceptors>  (35) 
5

>  <H-Donors>  (35) 
2

>  <Rotatable Bonds>  (35) 
7

>  <Polar Surface Area>  (35) 
75.99

$$$$
CDB0036
     RDKit          3D

 47 48  0  0  0  0  0  0  0  0999 V2000
   -0.3070   -3.0424   -0.4145 C   0  0  0  0  0  0  0  0  0  0  0  0
   -0.5933   -2.0558   -1.5149 C   0  0  0  0  0  0  0  0  0  0  0  0
    0.2669   -1.7659   -2.5131 C   0  0  0  0  0  0  0  0  0  0  0  0
    1.6835   -2.2416   -2.7091 C   0  0  0  0  0  0  0  0  0  0  0  0
    2.4094   -2.3936   -1.4894 O   0  0  0  0  0  0  0  0  0  0  0  0
    2.9295   -1.2814   -0.8876 C   0  0  0  0  0  0  0  0  0  0  0  0
    2.7676    0.0370   -1.3063 C   0  0  0  0  0  0  0  0  0  0  0  0
    3.3582    1.0630   -0.5668 C   0  0  0  0  0  0  0  0  0  0  0  0
    4.1056    0.8113    0.5813 C   0  0  0  0  0  0  0  0  0  0  0  0
    4.6894    1.9292    1.3033 C   0  0  0  0  0  0  0  0  0  0  0  0
    4.5010    3.1731    0.8523 C   0  0  0  0  0  0  0  0  0  0  0  0
    3.7183    3.4651   -0.3617 C   0  0  0  0  0  0  0  0  0  0  0  0
    3.5736    4.6187   -0.7494 O   0  0  0  0  0  0  0  0  0  0  0  0
    3.1671    2.3810   -1.0306 O   0  0  0  0  0  0  0  0  0  0  0  0
    4.2653   -0.5080    0.9999 C   0  0  0  0  0  0  0  0  0  0  0  0
    3.6779   -1.5453    0.2667 C   0  0  0  0  0  0  0  0  0  0  0  0
   -1.9619   -1.4021   -1.4684 C   0  0  0  0  0  0  0  0  0  0  0  0
   -2.0724   -0.3862   -0.3208 C   0  0  0  0  0  0  0  0  0  0  0  0
   -3.4605    0.2765   -0.2748 C   0  0  2  0  0  0  0  0  0  0  0  0
   -3.6798    0.9623   -1.5155 O   0  0  0  0  0  0  0  0  0  0  0  0
   -3.7012    1.2441    0.9236 C   0  0  0  0  0  0  0  0  0  0  0  0
   -3.5223    0.5452    2.2761 C   0  0  0  0  0  0  0  0  0  0  0  0
   -5.1148    1.8424    0.8485 C   0  0  0  0  0  0  0  0  0  0  0  0
   -2.5322    2.6207    0.8443 Cl  0  0  0  0  0  0  0  0  0  0  0  0
   -0.0218   -2.5205    0.5039 H   0  0  0  0  0  0  0  0  0  0  0  0
    0.4863   -3.7476   -0.6770 H   0  0  0  0  0  0  0  0  0  0  0  0
   -1.1958   -3.6476   -0.2049 H   0  0  0  0  0  0  0  0  0  0  0  0
   -0.0621   -1.0753   -3.2888 H   0  0  0  0  0  0  0  0  0  0  0  0
    1.6509   -3.2237   -3.1949 H   0  0  0  0  0  0  0  0  0  0  0  0
    2.2265   -1.5875   -3.4022 H   0  0  0  0  0  0  0  0  0  0  0  0
    2.1893    0.3019   -2.1832 H   0  0  0  0  0  0  0  0  0  0  0  0
    5.2695    1.7376    2.1991 H   0  0  0  0  0  0  0  0  0  0  0  0
    4.9181    4.0340    1.3603 H   0  0  0  0  0  0  0  0  0  0  0  0
    4.8395   -0.7473    1.8911 H   0  0  0  0  0  0  0  0  0  0  0  0
    3.8025   -2.5738    0.5991 H   0  0  0  0  0  0  0  0  0  0  0  0
   -2.7283   -2.1795   -1.3583 H   0  0  0  0  0  0  0  0  0  0  0  0
   -2.1734   -0.9033   -2.4223 H   0  0  0  0  0  0  0  0  0  0  0  0
   -1.8702   -0.8941    0.6273 H   0  0  0  0  0  0  0  0  0  0  0  0
   -1.2955    0.3751   -0.4616 H   0  0  0  0  0  0  0  0  0  0  0  0
   -4.2161   -0.5180   -0.2288 H   0  0  0  0  0  0  0  0  0  0  0  0
   -3.0928    1.7426   -1.5146 H   0  0  0  0  0  0  0  0  0  0  0  0
   -2.4903    0.2191    2.4406 H   0  0  0  0  0  0  0  0  0  0  0  0
   -4.1689   -0.3365    2.3478 H   0  0  0  0  0  0  0  0  0  0  0  0
   -3.7831    1.2124    3.1061 H   0  0  0  0  0  0  0  0  0  0  0  0
   -5.2699    2.4143   -0.0731 H   0  0  0  0  0  0  0  0  0  0  0  0
   -5.3086    2.5182    1.6897 H   0  0  0  0  0  0  0  0  0  0  0  0
   -5.8736    1.0523    0.8803 H   0  0  0  0  0  0  0  0  0  0  0  0
  1  2  1  0
  2  3  2  3
  3  4  1  0
  4  5  1  0
  5  6  1  0
  6  7  2  0
  7  8  1  0
  8  9  2  0
  9 10  1  0
 10 11  2  0
 11 12  1  0
 12 13  2  0
 12 14  1  0
  9 15  1  0
 15 16  2  0
  2 17  1  0
 17 18  1  0
 18 19  1  0
 19 20  1  0
 19 21  1  0
 21 22  1  0
 21 23  1  0
 21 24  1  0
 16  6  1  0
 14  8  1  0
  1 25  1  0
  1 26  1  0
  1 27  1  0
  3 28  1  0
  4 29  1  0
  4 30  1  0
  7 31  1  0
 10 32  1  0
 11 33  1  0
 15 34  1  0
 16 35  1  0
 17 36  1  0
 17 37  1  0
 18 38  1  0
 18 39  1  0
 19 40  1  1
 20 41  1  0
 22 42  1  0
 22 43  1  0
 22 44  1  0
 23 45  1  0
 23 46  1  0
 23 47  1  0
M  END
>  <Name>  (36) 
Chloromarmin

>  <PubChem ID>  (36) 
13965510

>  <CDB ID>  (36) 
CDB0036

>  <Smiles>  (36) 
CC(=CCOC1=CC2=C(C=CC(=O)O2)C=C1)CC[C@H](O)C(C)(C)Cl

>  <Chemical class>  (36) 
7-Oxygenated Coumarins

>  <Natural source>  (36) 
Aegle marmelos

>  <Molecular Formula>  (36) 
C19H23ClO4

>  <InChI-Key>  (36) 
LJKOFXGMGDOURN-KRWDZBQOSA-N

>  <Total Molweight>  (36) 
350.841

>  <cLogP>  (36) 
4.4595

>  <cLogS>  (36) 
-4.314

>  <H-Acceptors>  (36) 
4

>  <H-Donors>  (36) 
1

>  <Rotatable Bonds>  (36) 
7

>  <Polar Surface Area>  (36) 
55.76

$$$$
CDB0037
     RDKit          3D

 69 71  0  0  0  0  0  0  0  0999 V2000
   -0.0275    3.6226   -3.2221 C   0  0  0  0  0  0  0  0  0  0  0  0
    0.6838    2.7619   -2.2100 C   0  0  0  0  0  0  0  0  0  0  0  0
    1.8364    3.1775   -1.6458 C   0  0  0  0  0  0  0  0  0  0  0  0
    2.6723    2.4671   -0.6199 C   0  0  0  0  0  0  0  0  0  0  0  0
    4.0020    2.3920   -1.1342 O   0  0  0  0  0  0  0  0  0  0  0  0
    4.9484    1.8073   -0.3392 C   0  0  0  0  0  0  0  0  0  0  0  0
    6.2344    1.7920   -0.8818 C   0  0  0  0  0  0  0  0  0  0  0  0
    7.2803    1.2219   -0.1599 C   0  0  0  0  0  0  0  0  0  0  0  0
    7.0776    0.6607    1.0975 C   0  0  0  0  0  0  0  0  0  0  0  0
    5.7922    0.6744    1.6391 C   0  0  0  0  0  0  0  0  0  0  0  0
    4.7308    1.2460    0.9229 C   0  0  0  0  0  0  0  0  0  0  0  0
    8.2084    0.0798    1.8015 C   0  0  0  0  0  0  0  0  0  0  0  0
    9.4162    0.0968    1.2297 C   0  0  0  0  0  0  0  0  0  0  0  0
    9.6548    0.6863   -0.0999 C   0  0  0  0  0  0  0  0  0  0  0  0
   10.7783    0.6839   -0.5902 O   0  0  0  0  0  0  0  0  0  0  0  0
    8.5587    1.2337   -0.7518 O   0  0  0  0  0  0  0  0  0  0  0  0
    0.0180    1.4314   -1.9179 C   0  0  0  0  0  0  0  0  0  0  0  0
   -1.0158    1.5585   -0.7910 C   0  0  0  0  0  0  0  0  0  0  0  0
   -1.7977    0.2743   -0.4542 C   0  0  0  0  0  0  0  0  0  0  0  0
   -3.1380    0.0403   -1.2295 C   0  0  0  0  0  0  0  0  0  0  0  0
   -2.9215   -0.0286   -2.7488 C   0  0  0  0  0  0  0  0  0  0  0  0
   -4.1618    1.1542   -0.9472 C   0  0  0  0  0  0  0  0  0  0  0  0
   -3.7459   -1.2385   -0.9216 O   0  0  0  0  0  0  0  0  0  0  0  0
   -3.9678   -1.5630    0.4512 C   0  0  0  0  0  0  0  0  0  0  0  0
   -5.0463   -2.6676    0.4749 C   0  0  0  0  0  0  0  0  0  0  0  0
   -4.9995   -3.4662    1.7908 C   0  0  0  0  0  0  0  0  0  0  0  0
   -4.2977   -2.6898    2.9093 C   0  0  0  0  0  0  0  0  0  0  0  0
   -2.8902   -2.2336    2.4676 C   0  0  0  0  0  0  0  0  0  0  0  0
   -2.7816   -2.0923    1.0292 O   0  0  0  0  0  0  0  0  0  0  0  0
   -1.8238   -3.2516    2.8969 C   0  0  0  0  0  0  0  0  0  0  0  0
   -0.5228   -2.7005    2.7000 O   0  0  0  0  0  0  0  0  0  0  0  0
   -5.0924   -1.5300    3.2187 O   0  0  0  0  0  0  0  0  0  0  0  0
   -6.3286   -3.8055    2.2186 O   0  0  0  0  0  0  0  0  0  0  0  0
   -6.3656   -2.1206    0.2765 O   0  0  0  0  0  0  0  0  0  0  0  0
   -0.9296   -0.8519   -0.6012 O   0  0  0  0  0  0  0  0  0  0  0  0
   -1.0413    3.8553   -2.8811 H   0  0  0  0  0  0  0  0  0  0  0  0
   -0.0944    3.1015   -4.1827 H   0  0  0  0  0  0  0  0  0  0  0  0
    0.4893    4.5724   -3.3956 H   0  0  0  0  0  0  0  0  0  0  0  0
    2.2378    4.1480   -1.9349 H   0  0  0  0  0  0  0  0  0  0  0  0
    2.6624    3.0655    0.2991 H   0  0  0  0  0  0  0  0  0  0  0  0
    2.2950    1.4639   -0.4049 H   0  0  0  0  0  0  0  0  0  0  0  0
    6.4179    2.2222   -1.8623 H   0  0  0  0  0  0  0  0  0  0  0  0
    5.5970    0.2427    2.6179 H   0  0  0  0  0  0  0  0  0  0  0  0
    3.7460    1.2315    1.3799 H   0  0  0  0  0  0  0  0  0  0  0  0
    8.0557   -0.3595    2.7809 H   0  0  0  0  0  0  0  0  0  0  0  0
   10.2857   -0.3250    1.7188 H   0  0  0  0  0  0  0  0  0  0  0  0
   -0.4399    1.0601   -2.8391 H   0  0  0  0  0  0  0  0  0  0  0  0
    0.7708    0.6800   -1.6572 H   0  0  0  0  0  0  0  0  0  0  0  0
   -0.4595    1.8385    0.1154 H   0  0  0  0  0  0  0  0  0  0  0  0
   -1.7021    2.3907   -0.9769 H   0  0  0  0  0  0  0  0  0  0  0  0
   -2.0371    0.3387    0.6149 H   0  0  0  0  0  0  0  0  0  0  0  0
   -3.8451   -0.3298   -3.2585 H   0  0  0  0  0  0  0  0  0  0  0  0
   -2.6149    0.9343   -3.1670 H   0  0  0  0  0  0  0  0  0  0  0  0
   -2.1715   -0.7845   -3.0068 H   0  0  0  0  0  0  0  0  0  0  0  0
   -4.2686    1.3393    0.1266 H   0  0  0  0  0  0  0  0  0  0  0  0
   -3.8805    2.1015   -1.4176 H   0  0  0  0  0  0  0  0  0  0  0  0
   -5.1541    0.8726   -1.3182 H   0  0  0  0  0  0  0  0  0  0  0  0
   -4.3087   -0.6710    0.9860 H   0  0  0  0  0  0  0  0  0  0  0  0
   -4.8883   -3.3689   -0.3542 H   0  0  0  0  0  0  0  0  0  0  0  0
   -4.4560   -4.4037    1.6245 H   0  0  0  0  0  0  0  0  0  0  0  0
   -4.2627   -3.2725    3.8362 H   0  0  0  0  0  0  0  0  0  0  0  0
   -2.6498   -1.2531    2.8971 H   0  0  0  0  0  0  0  0  0  0  0  0
   -1.8957   -4.1647    2.2967 H   0  0  0  0  0  0  0  0  0  0  0  0
   -1.9196   -3.5031    3.9574 H   0  0  0  0  0  0  0  0  0  0  0  0
    0.1195   -3.4222    2.8106 H   0  0  0  0  0  0  0  0  0  0  0  0
   -5.9994   -1.8704    3.3623 H   0  0  0  0  0  0  0  0  0  0  0  0
   -6.9241   -3.3381    1.5910 H   0  0  0  0  0  0  0  0  0  0  0  0
   -6.3145   -1.6197   -0.5617 H   0  0  0  0  0  0  0  0  0  0  0  0
   -1.3882   -1.5958   -0.1552 H   0  0  0  0  0  0  0  0  0  0  0  0
  1  2  1  0
  2  3  2  3
  3  4  1  0
  4  5  1  0
  5  6  1  0
  6  7  2  0
  7  8  1  0
  8  9  2  0
  9 10  1  0
 10 11  2  0
  9 12  1  0
 12 13  2  0
 13 14  1  0
 14 15  2  0
 14 16  1  0
  2 17  1  0
 17 18  1  0
 18 19  1  0
 19 20  1  0
 20 21  1  0
 20 22  1  0
 20 23  1  0
 23 24  1  0
 24 25  1  0
 25 26  1  0
 26 27  1  0
 27 28  1  0
 28 29  1  0
 28 30  1  0
 30 31  1  0
 27 32  1  0
 26 33  1  0
 25 34  1  0
 19 35  1  0
 11  6  1  0
 16  8  1  0
 29 24  1  0
  1 36  1  0
  1 37  1  0
  1 38  1  0
  3 39  1  0
  4 40  1  0
  4 41  1  0
  7 42  1  0
 10 43  1  0
 11 44  1  0
 12 45  1  0
 13 46  1  0
 17 47  1  0
 17 48  1  0
 18 49  1  0
 18 50  1  0
 19 51  1  0
 21 52  1  0
 21 53  1  0
 21 54  1  0
 22 55  1  0
 22 56  1  0
 22 57  1  0
 24 58  1  0
 25 59  1  0
 26 60  1  0
 27 61  1  0
 28 62  1  0
 30 63  1  0
 30 64  1  0
 31 65  1  0
 32 66  1  0
 33 67  1  0
 34 68  1  0
 35 69  1  0
M  END
>  <Name>  (37) 
Pituranthoside

>  <PubChem ID>  (37) 
101682294

>  <CDB ID>  (37) 
CDB0037

>  <Smiles>  (37) 
CC(=CCOC1=CC2=C(C=C1)C=CC(=O)O2)CCC(C(C)(C)OC3C(C(C(C(O3)CO)O)O)O)O

>  <Chemical class>  (37) 
7-Oxygenated Coumarins

>  <Natural source>  (37) 
Pituranthos triradiatus

>  <Molecular Formula>  (37) 
C25H34O10

>  <InChI-Key>  (37) 
FOXNJWZLANRZNJ-UHFFFAOYSA-N

>  <Total Molweight>  (37) 
494.535

>  <cLogP>  (37) 
1.4142

>  <cLogS>  (37) 
-3.215

>  <H-Acceptors>  (37) 
10

>  <H-Donors>  (37) 
5

>  <Rotatable Bonds>  (37) 
10

>  <Polar Surface Area>  (37) 
155.14

$$$$
CDB0038
     RDKit          3D

 46 48  0  0  0  0  0  0  0  0999 V2000
   -2.1552   -2.8868    0.8937 C   0  0  0  0  0  0  0  0  0  0  0  0
   -1.2365   -1.7477    1.2238 C   0  0  0  0  0  0  0  0  0  0  0  0
    0.0748   -2.0681    1.9296 C   0  0  0  0  0  0  0  0  0  0  0  0
   -1.0562   -1.5414    2.6372 O   0  0  0  0  0  0  0  0  0  0  0  0
    1.2733   -1.1766    1.9095 C   0  0  0  0  0  0  0  0  0  0  0  0
    1.8655   -1.2662    0.6142 O   0  0  0  0  0  0  0  0  0  0  0  0
    2.9685   -0.4953    0.3749 C   0  0  0  0  0  0  0  0  0  0  0  0
    3.4731   -0.5905   -0.9230 C   0  0  0  0  0  0  0  0  0  0  0  0
    4.5959    0.1516   -1.2819 C   0  0  0  0  0  0  0  0  0  0  0  0
    5.2353    0.9918   -0.3754 C   0  0  0  0  0  0  0  0  0  0  0  0
    4.7321    1.0853    0.9223 C   0  0  0  0  0  0  0  0  0  0  0  0
    3.6024    0.3434    1.2966 C   0  0  0  0  0  0  0  0  0  0  0  0
    6.4022    1.7410   -0.8100 C   0  0  0  0  0  0  0  0  0  0  0  0
    6.8365    1.6083   -2.0670 C   0  0  0  0  0  0  0  0  0  0  0  0
    6.1759    0.7243   -3.0440 C   0  0  0  0  0  0  0  0  0  0  0  0
    6.6040    0.6284   -4.1884 O   0  0  0  0  0  0  0  0  0  0  0  0
    5.0636    0.0202   -2.6041 O   0  0  0  0  0  0  0  0  0  0  0  0
   -1.4081   -0.4788    0.4211 C   0  0  0  0  0  0  0  0  0  0  0  0
   -2.7496    0.1854    0.5863 C   0  0  0  0  0  0  0  0  0  0  0  0
   -3.6295    0.3748   -0.4128 C   0  0  0  0  0  0  0  0  0  0  0  0
   -4.9855    1.0387   -0.3117 C   0  0  0  0  0  0  0  0  0  0  0  0
   -6.0711    0.1186   -0.8750 C   0  0  0  0  0  0  0  0  0  0  0  0
   -4.9761    2.3725   -1.0576 C   0  0  0  0  0  0  0  0  0  0  0  0
   -5.3072    1.3121    1.0505 O   0  0  0  0  0  0  0  0  0  0  0  0
   -1.9324   -3.7765    1.4926 H   0  0  0  0  0  0  0  0  0  0  0  0
   -3.1989   -2.6161    1.0824 H   0  0  0  0  0  0  0  0  0  0  0  0
   -2.0549   -3.1610   -0.1614 H   0  0  0  0  0  0  0  0  0  0  0  0
    0.3405   -3.1070    2.0784 H   0  0  0  0  0  0  0  0  0  0  0  0
    0.9946   -0.1408    2.1362 H   0  0  0  0  0  0  0  0  0  0  0  0
    1.9814   -1.5296    2.6687 H   0  0  0  0  0  0  0  0  0  0  0  0
    2.9932   -1.2389   -1.6505 H   0  0  0  0  0  0  0  0  0  0  0  0
    5.2074    1.7317    1.6565 H   0  0  0  0  0  0  0  0  0  0  0  0
    3.2462    0.4453    2.3170 H   0  0  0  0  0  0  0  0  0  0  0  0
    6.9041    2.3976   -0.1081 H   0  0  0  0  0  0  0  0  0  0  0  0
    7.7018    2.1479   -2.4322 H   0  0  0  0  0  0  0  0  0  0  0  0
   -0.6523    0.2652    0.6939 H   0  0  0  0  0  0  0  0  0  0  0  0
   -1.2247   -0.7156   -0.6346 H   0  0  0  0  0  0  0  0  0  0  0  0
   -2.9738    0.5403    1.5904 H   0  0  0  0  0  0  0  0  0  0  0  0
   -3.3583    0.0343   -1.4118 H   0  0  0  0  0  0  0  0  0  0  0  0
   -7.0625    0.5727   -0.7622 H   0  0  0  0  0  0  0  0  0  0  0  0
   -6.1035   -0.8321   -0.3293 H   0  0  0  0  0  0  0  0  0  0  0  0
   -5.9107   -0.1007   -1.9363 H   0  0  0  0  0  0  0  0  0  0  0  0
   -5.9447    2.8776   -0.9644 H   0  0  0  0  0  0  0  0  0  0  0  0
   -4.2312    3.0554   -0.6316 H   0  0  0  0  0  0  0  0  0  0  0  0
   -4.7555    2.2440   -2.1229 H   0  0  0  0  0  0  0  0  0  0  0  0
   -5.2940    0.4614    1.5210 H   0  0  0  0  0  0  0  0  0  0  0  0
  1  2  1  0
  2  3  1  0
  3  4  1  0
  3  5  1  0
  5  6  1  0
  6  7  1  0
  7  8  2  0
  8  9  1  0
  9 10  2  0
 10 11  1  0
 11 12  2  0
 10 13  1  0
 13 14  2  0
 14 15  1  0
 15 16  2  0
 15 17  1  0
  2 18  1  0
 18 19  1  0
 19 20  2  3
 20 21  1  0
 21 22  1  0
 21 23  1  0
 21 24  1  0
  4  2  1  0
 12  7  1  0
 17  9  1  0
  1 25  1  0
  1 26  1  0
  1 27  1  0
  3 28  1  0
  5 29  1  0
  5 30  1  0
  8 31  1  0
 11 32  1  0
 12 33  1  0
 13 34  1  0
 14 35  1  0
 18 36  1  0
 18 37  1  0
 19 38  1  0
 20 39  1  0
 22 40  1  0
 22 41  1  0
 22 42  1  0
 23 43  1  0
 23 44  1  0
 23 45  1  0
 24 46  1  0
M  END
>  <Name>  (38) 
Excavatin C

>  <PubChem ID>  (38) 
15485572

>  <CDB ID>  (38) 
CDB0038

>  <Smiles>  (38) 
CC1(C(O1)COC2=CC3=C(C=C2)C=CC(=O)O3)CC=CC(C)(C)O

>  <Chemical class>  (38) 
7-Oxygenated Coumarins

>  <Natural source>  (38) 
Clausena excavata

>  <Molecular Formula>  (38) 
C19H22O5

>  <InChI-Key>  (38) 
KPHAWSGLVQWJHP-UHFFFAOYSA-N

>  <Total Molweight>  (38) 
330.379

>  <cLogP>  (38) 
2.5901

>  <cLogS>  (38) 
-3.582

>  <H-Acceptors>  (38) 
5

>  <H-Donors>  (38) 
1

>  <Rotatable Bonds>  (38) 
6

>  <Polar Surface Area>  (38) 
68.29

$$$$
CDB0039
     RDKit          3D

 46 48  0  0  0  0  0  0  0  0999 V2000
   -1.1064   -1.8508   -3.2899 C   0  0  0  0  0  0  0  0  0  0  0  0
   -1.0737   -1.0669   -2.0043 C   0  0  0  0  0  0  0  0  0  0  0  0
    0.0839   -0.8911   -1.3340 C   0  0  0  0  0  0  0  0  0  0  0  0
    0.2878   -0.1566   -0.0376 C   0  0  0  0  0  0  0  0  0  0  0  0
    1.3575    0.7817   -0.1836 O   0  0  0  0  0  0  0  0  0  0  0  0
    2.6156    0.4194    0.2078 C   0  0  0  0  0  0  0  0  0  0  0  0
    3.5230    1.4771    0.2921 C   0  0  0  0  0  0  0  0  0  0  0  0
    4.8397    1.2284    0.6722 C   0  0  0  0  0  0  0  0  0  0  0  0
    5.2832   -0.0574    0.9661 C   0  0  0  0  0  0  0  0  0  0  0  0
    4.3801   -1.1161    0.8708 C   0  0  0  0  0  0  0  0  0  0  0  0
    3.0515   -0.8784    0.4896 C   0  0  0  0  0  0  0  0  0  0  0  0
    6.6691   -0.2540    1.3564 C   0  0  0  0  0  0  0  0  0  0  0  0
    7.4870    0.8007    1.4256 C   0  0  0  0  0  0  0  0  0  0  0  0
    7.0396    2.1714    1.1194 C   0  0  0  0  0  0  0  0  0  0  0  0
    7.8200    3.1135    1.1952 O   0  0  0  0  0  0  0  0  0  0  0  0
    5.7120    2.3320    0.7483 O   0  0  0  0  0  0  0  0  0  0  0  0
   -2.4132   -0.5113   -1.5569 C   0  0  0  0  0  0  0  0  0  0  0  0
   -3.1513   -1.4063   -0.6083 C   0  0  0  0  0  0  0  0  0  0  0  0
   -4.2423   -0.9381    0.3440 C   0  0  0  0  0  0  0  0  0  0  0  0
   -2.8897   -1.1702    0.7793 O   0  0  0  0  0  0  0  0  0  0  0  0
   -4.7482    0.4848    0.4447 C   0  0  0  0  0  0  0  0  0  0  0  0
   -6.1493    0.4957    1.0734 C   0  0  0  0  0  0  0  0  0  0  0  0
   -3.8316    1.4018    1.2610 C   0  0  0  0  0  0  0  0  0  0  0  0
   -4.8827    1.0137   -0.8773 O   0  0  0  0  0  0  0  0  0  0  0  0
   -1.4447   -1.2144   -4.1140 H   0  0  0  0  0  0  0  0  0  0  0  0
   -1.7920   -2.6996   -3.2002 H   0  0  0  0  0  0  0  0  0  0  0  0
   -0.1219   -2.2475   -3.5596 H   0  0  0  0  0  0  0  0  0  0  0  0
    0.9905   -1.3291   -1.7471 H   0  0  0  0  0  0  0  0  0  0  0  0
    0.4474   -0.8513    0.7940 H   0  0  0  0  0  0  0  0  0  0  0  0
   -0.5911    0.4333    0.2331 H   0  0  0  0  0  0  0  0  0  0  0  0
    3.2026    2.4899    0.0649 H   0  0  0  0  0  0  0  0  0  0  0  0
    4.6940   -2.1349    1.0851 H   0  0  0  0  0  0  0  0  0  0  0  0
    2.3882   -1.7338    0.4098 H   0  0  0  0  0  0  0  0  0  0  0  0
    7.0198   -1.2539    1.5859 H   0  0  0  0  0  0  0  0  0  0  0  0
    8.5266    0.6994    1.7120 H   0  0  0  0  0  0  0  0  0  0  0  0
   -2.2695    0.4894   -1.1387 H   0  0  0  0  0  0  0  0  0  0  0  0
   -3.0430   -0.3548   -2.4421 H   0  0  0  0  0  0  0  0  0  0  0  0
   -3.2074   -2.4310   -0.9546 H   0  0  0  0  0  0  0  0  0  0  0  0
   -4.9854   -1.6767    0.6207 H   0  0  0  0  0  0  0  0  0  0  0  0
   -6.8504   -0.0960    0.4726 H   0  0  0  0  0  0  0  0  0  0  0  0
   -6.1378    0.0834    2.0881 H   0  0  0  0  0  0  0  0  0  0  0  0
   -6.5571    1.5122    1.1136 H   0  0  0  0  0  0  0  0  0  0  0  0
   -2.8475    1.5085    0.7948 H   0  0  0  0  0  0  0  0  0  0  0  0
   -4.2465    2.4145    1.3248 H   0  0  0  0  0  0  0  0  0  0  0  0
   -3.6880    1.0235    2.2788 H   0  0  0  0  0  0  0  0  0  0  0  0
   -5.1481    1.9459   -0.7975 H   0  0  0  0  0  0  0  0  0  0  0  0
  1  2  1  0
  2  3  2  3
  3  4  1  0
  4  5  1  0
  5  6  1  0
  6  7  2  0
  7  8  1  0
  8  9  2  0
  9 10  1  0
 10 11  2  0
  9 12  1  0
 12 13  2  0
 13 14  1  0
 14 15  2  0
 14 16  1  0
  2 17  1  0
 17 18  1  0
 18 19  1  0
 19 20  1  0
 19 21  1  0
 21 22  1  0
 21 23  1  0
 21 24  1  0
 11  6  1  0
 16  8  1  0
 20 18  1  0
  1 25  1  0
  1 26  1  0
  1 27  1  0
  3 28  1  0
  4 29  1  0
  4 30  1  0
  7 31  1  0
 10 32  1  0
 11 33  1  0
 12 34  1  0
 13 35  1  0
 17 36  1  0
 17 37  1  0
 18 38  1  0
 19 39  1  0
 22 40  1  0
 22 41  1  0
 22 42  1  0
 23 43  1  0
 23 44  1  0
 23 45  1  0
 24 46  1  0
M  END
>  <Name>  (39) 
Excavatin B

>  <PubChem ID>  (39) 
15485575

>  <CDB ID>  (39) 
CDB0039

>  <Smiles>  (39) 
CC(=CCOC1=CC2=C(C=C1)C=CC(=O)O2)CC3C(O3)C(C)(C)O

>  <Chemical class>  (39) 
7-Oxygenated Coumarins

>  <Natural source>  (39) 
Clausena excavata

>  <Molecular Formula>  (39) 
C19H22O5

>  <InChI-Key>  (39) 
UUNMPBCTAGMNET-UHFFFAOYSA-N

>  <Total Molweight>  (39) 
330.379

>  <cLogP>  (39) 
2.8985

>  <cLogS>  (39) 
-3.597

>  <H-Acceptors>  (39) 
5

>  <H-Donors>  (39) 
1

>  <Rotatable Bonds>  (39) 
6

>  <Polar Surface Area>  (39) 
68.29

$$$$
CDB0040
     RDKit          3D

 70 72  0  0  0  0  0  0  0  0999 V2000
    1.6840   -1.6113   -2.6255 C   0  0  0  0  0  0  0  0  0  0  0  0
    1.1145   -1.3705   -1.2508 C   0  0  0  0  0  0  0  0  0  0  0  0
    1.8584   -1.0447   -0.1717 C   0  0  0  0  0  0  0  0  0  0  0  0
    3.3396   -0.8121   -0.0922 C   0  0  0  0  0  0  0  0  0  0  0  0
    3.5332    0.4160    0.6123 O   0  0  0  0  0  0  0  0  0  0  0  0
    4.8227    0.8112    0.8374 C   0  0  0  0  0  0  0  0  0  0  0  0
    5.9719    0.1256    0.4496 C   0  0  0  0  0  0  0  0  0  0  0  0
    7.2212    0.6671    0.7578 C   0  0  0  0  0  0  0  0  0  0  0  0
    7.3567    1.8729    1.4423 C   0  0  0  0  0  0  0  0  0  0  0  0
    6.2055    2.5560    1.8290 C   0  0  0  0  0  0  0  0  0  0  0  0
    4.9470    2.0242    1.5260 C   0  0  0  0  0  0  0  0  0  0  0  0
    8.6893    2.3764    1.7293 C   0  0  0  0  0  0  0  0  0  0  0  0
    9.7562    1.6762    1.3323 C   0  0  0  0  0  0  0  0  0  0  0  0
    9.6395    0.3990    0.6066 C   0  0  0  0  0  0  0  0  0  0  0  0
   10.6406   -0.2156    0.2572 O   0  0  0  0  0  0  0  0  0  0  0  0
    8.3561   -0.0611    0.3451 O   0  0  0  0  0  0  0  0  0  0  0  0
   -0.3933   -1.5196   -1.1133 C   0  0  0  0  0  0  0  0  0  0  0  0
   -1.1773   -0.5298   -1.9876 C   0  0  0  0  0  0  0  0  0  0  0  0
   -2.7012   -0.6299   -1.7629 C   0  0  0  0  0  0  0  0  0  0  0  0
   -3.5285    0.2833   -2.7336 C   0  0  0  0  0  0  0  0  0  0  0  0
   -3.1782    0.0400   -4.2067 C   0  0  0  0  0  0  0  0  0  0  0  0
   -3.3875    1.7738   -2.4026 C   0  0  0  0  0  0  0  0  0  0  0  0
   -4.9196   -0.0657   -2.6030 O   0  0  0  0  0  0  0  0  0  0  0  0
   -2.9310   -0.2737   -0.3835 O   0  0  0  0  0  0  0  0  0  0  0  0
   -4.1471   -0.7781    0.1633 C   0  0  0  0  0  0  0  0  0  0  0  0
   -3.8371   -1.7898    1.2959 C   0  0  0  0  0  0  0  0  0  0  0  0
   -4.9215   -1.6891    2.3747 C   0  0  0  0  0  0  0  0  0  0  0  0
   -4.8541   -0.2769    3.0013 C   0  0  0  0  0  0  0  0  0  0  0  0
   -4.7678    0.8218    1.9063 C   0  0  0  0  0  0  0  0  0  0  0  0
   -5.0023    0.2905    0.5915 O   0  0  0  0  0  0  0  0  0  0  0  0
   -3.5534    1.7694    1.9410 C   0  0  0  0  0  0  0  0  0  0  0  0
   -2.3080    1.1025    2.1344 O   0  0  0  0  0  0  0  0  0  0  0  0
   -3.7702   -0.1833    3.9402 O   0  0  0  0  0  0  0  0  0  0  0  0
   -6.2200   -1.9725    1.8490 O   0  0  0  0  0  0  0  0  0  0  0  0
   -2.5564   -1.5435    1.9146 O   0  0  0  0  0  0  0  0  0  0  0  0
   -0.7420   -2.8518   -1.4832 O   0  0  0  0  0  0  0  0  0  0  0  0
    1.4556   -0.7684   -3.2852 H   0  0  0  0  0  0  0  0  0  0  0  0
    1.2622   -2.5198   -3.0674 H   0  0  0  0  0  0  0  0  0  0  0  0
    2.7677   -1.7502   -2.6212 H   0  0  0  0  0  0  0  0  0  0  0  0
    1.3520   -0.9038    0.7839 H   0  0  0  0  0  0  0  0  0  0  0  0
    3.7952   -0.7364   -1.0830 H   0  0  0  0  0  0  0  0  0  0  0  0
    3.7880   -1.6403    0.4687 H   0  0  0  0  0  0  0  0  0  0  0  0
    5.9350   -0.8166   -0.0849 H   0  0  0  0  0  0  0  0  0  0  0  0
    6.2672    3.4998    2.3647 H   0  0  0  0  0  0  0  0  0  0  0  0
    4.0503    2.5611    1.8295 H   0  0  0  0  0  0  0  0  0  0  0  0
    8.7987    3.3143    2.2623 H   0  0  0  0  0  0  0  0  0  0  0  0
   10.7663    2.0159    1.5261 H   0  0  0  0  0  0  0  0  0  0  0  0
   -0.6864   -1.3927   -0.0667 H   0  0  0  0  0  0  0  0  0  0  0  0
   -0.8340    0.4867   -1.7613 H   0  0  0  0  0  0  0  0  0  0  0  0
   -0.9562   -0.7426   -3.0382 H   0  0  0  0  0  0  0  0  0  0  0  0
   -3.0085   -1.6741   -1.9095 H   0  0  0  0  0  0  0  0  0  0  0  0
   -3.8993    0.5375   -4.8664 H   0  0  0  0  0  0  0  0  0  0  0  0
   -3.2292   -1.0282   -4.4458 H   0  0  0  0  0  0  0  0  0  0  0  0
   -2.1821    0.4117   -4.4646 H   0  0  0  0  0  0  0  0  0  0  0  0
   -3.7616    1.9953   -1.3986 H   0  0  0  0  0  0  0  0  0  0  0  0
   -3.9891    2.3827   -3.0879 H   0  0  0  0  0  0  0  0  0  0  0  0
   -2.3502    2.1135   -2.4742 H   0  0  0  0  0  0  0  0  0  0  0  0
   -5.4447    0.6141   -3.0597 H   0  0  0  0  0  0  0  0  0  0  0  0
   -4.7316   -1.3204   -0.5870 H   0  0  0  0  0  0  0  0  0  0  0  0
   -3.7909   -2.7975    0.8694 H   0  0  0  0  0  0  0  0  0  0  0  0
   -4.7175   -2.4317    3.1551 H   0  0  0  0  0  0  0  0  0  0  0  0
   -5.7700   -0.1074    3.5800 H   0  0  0  0  0  0  0  0  0  0  0  0
   -5.6371    1.4747    2.0601 H   0  0  0  0  0  0  0  0  0  0  0  0
   -3.6652    2.4926    2.7566 H   0  0  0  0  0  0  0  0  0  0  0  0
   -3.4816    2.3293    1.0039 H   0  0  0  0  0  0  0  0  0  0  0  0
   -2.2902    0.8832    3.0883 H   0  0  0  0  0  0  0  0  0  0  0  0
   -3.1213   -0.8744    3.6784 H   0  0  0  0  0  0  0  0  0  0  0  0
   -6.4755   -1.2387    1.2563 H   0  0  0  0  0  0  0  0  0  0  0  0
   -2.2157   -0.7199    1.4856 H   0  0  0  0  0  0  0  0  0  0  0  0
   -0.2405   -3.4362   -0.8879 H   0  0  0  0  0  0  0  0  0  0  0  0
  1  2  1  0
  2  3  2  3
  3  4  1  0
  4  5  1  0
  5  6  1  0
  6  7  2  0
  7  8  1  0
  8  9  2  0
  9 10  1  0
 10 11  2  0
  9 12  1  0
 12 13  2  0
 13 14  1  0
 14 15  2  0
 14 16  1  0
  2 17  1  0
 17 18  1  0
 18 19  1  0
 19 20  1  0
 20 21  1  0
 20 22  1  0
 20 23  1  0
 19 24  1  0
 24 25  1  0
 25 26  1  0
 26 27  1  0
 27 28  1  0
 28 29  1  0
 29 30  1  0
 29 31  1  0
 31 32  1  0
 28 33  1  0
 27 34  1  0
 26 35  1  0
 17 36  1  0
 11  6  1  0
 16  8  1  0
 30 25  1  0
  1 37  1  0
  1 38  1  0
  1 39  1  0
  3 40  1  0
  4 41  1  0
  4 42  1  0
  7 43  1  0
 10 44  1  0
 11 45  1  0
 12 46  1  0
 13 47  1  0
 17 48  1  0
 18 49  1  0
 18 50  1  0
 19 51  1  0
 21 52  1  0
 21 53  1  0
 21 54  1  0
 22 55  1  0
 22 56  1  0
 22 57  1  0
 23 58  1  0
 25 59  1  0
 26 60  1  0
 27 61  1  0
 28 62  1  0
 29 63  1  0
 31 64  1  0
 31 65  1  0
 32 66  1  0
 33 67  1  0
 34 68  1  0
 35 69  1  0
 36 70  1  0
M  END
>  <Name>  (40) 
Aeglin

>  <PubChem ID>  (40) 
131753136

>  <CDB ID>  (40) 
CDB0040

>  <Smiles>  (40) 
CC(=CCOC1=CC2=C(C=C1)C=CC(=O)O2)C(CC(C(C)(C)O)OC3C(C(C(C(O3)CO)O)O)O)O

>  <Chemical class>  (40) 
7-Oxygenated Coumarins

>  <Natural source>  (40) 
Aegle marmelos

>  <Molecular Formula>  (40) 
C25H34O11

>  <InChI-Key>  (40) 
HLXHWKRKFDBAEQ-UHFFFAOYSA-N

>  <Total Molweight>  (40) 
510.534

>  <cLogP>  (40) 
0.3924

>  <cLogS>  (40) 
-2.816

>  <H-Acceptors>  (40) 
11

>  <H-Donors>  (40) 
6

>  <Rotatable Bonds>  (40) 
10

>  <Polar Surface Area>  (40) 
175.37

$$$$
CDB0041
     RDKit          3D

 45 47  0  0  0  0  0  0  0  0999 V2000
    5.5168    1.3930    1.6312 C   0  0  0  0  0  0  0  0  0  0  0  0
    4.0441    1.1134    1.3999 C   0  0  0  0  0  0  0  0  0  0  0  0
    3.7737    0.4492    0.0654 C   0  0  0  0  0  0  0  0  0  0  0  0
    2.4824   -0.2985    0.3360 C   0  0  0  0  0  0  0  0  0  0  0  0
    2.5907   -0.7085    1.7126 O   0  0  0  0  0  0  0  0  0  0  0  0
    3.4838    0.0969    2.3588 C   0  0  0  0  0  0  0  0  0  0  0  0
    3.7386    0.0153    3.5492 O   0  0  0  0  0  0  0  0  0  0  0  0
    2.2180   -1.5347   -0.5499 C   0  0  0  0  0  0  0  0  0  0  0  0
    1.7724   -1.1867   -1.9588 C   0  0  0  0  0  0  0  0  0  0  0  0
    0.4796   -1.0267   -2.3166 C   0  0  0  0  0  0  0  0  0  0  0  0
   -0.7470   -1.1237   -1.4541 C   0  0  0  0  0  0  0  0  0  0  0  0
   -1.3846    0.1522   -1.5003 O   0  0  0  0  0  0  0  0  0  0  0  0
   -2.5431    0.2969   -0.7883 C   0  0  0  0  0  0  0  0  0  0  0  0
   -3.1902   -0.6996   -0.0608 C   0  0  0  0  0  0  0  0  0  0  0  0
   -4.3728   -0.3884    0.6128 C   0  0  0  0  0  0  0  0  0  0  0  0
   -4.9279    0.8888    0.5822 C   0  0  0  0  0  0  0  0  0  0  0  0
   -4.2789    1.8831   -0.1471 C   0  0  0  0  0  0  0  0  0  0  0  0
   -3.0935    1.5840   -0.8283 C   0  0  0  0  0  0  0  0  0  0  0  0
   -6.1608    1.1408    1.3089 C   0  0  0  0  0  0  0  0  0  0  0  0
   -6.7392    0.1451    1.9874 C   0  0  0  0  0  0  0  0  0  0  0  0
   -6.1751   -1.2156    2.0311 C   0  0  0  0  0  0  0  0  0  0  0  0
   -6.7366   -2.1059    2.6585 O   0  0  0  0  0  0  0  0  0  0  0  0
   -4.9942   -1.4294    1.3331 O   0  0  0  0  0  0  0  0  0  0  0  0
    2.8553   -1.0073   -2.9963 C   0  0  0  0  0  0  0  0  0  0  0  0
    3.3757   -2.3690   -0.6167 O   0  0  0  0  0  0  0  0  0  0  0  0
    5.6704    1.8703    2.6050 H   0  0  0  0  0  0  0  0  0  0  0  0
    6.1075    0.4702    1.6255 H   0  0  0  0  0  0  0  0  0  0  0  0
    5.9129    2.0601    0.8589 H   0  0  0  0  0  0  0  0  0  0  0  0
    3.4548    2.0323    1.4992 H   0  0  0  0  0  0  0  0  0  0  0  0
    3.6772    1.1730   -0.7493 H   0  0  0  0  0  0  0  0  0  0  0  0
    4.5902   -0.2370   -0.1882 H   0  0  0  0  0  0  0  0  0  0  0  0
    1.6226    0.3822    0.2825 H   0  0  0  0  0  0  0  0  0  0  0  0
    1.4594   -2.1499   -0.0530 H   0  0  0  0  0  0  0  0  0  0  0  0
    0.2529   -0.7750   -3.3529 H   0  0  0  0  0  0  0  0  0  0  0  0
   -0.5018   -1.3766   -0.4189 H   0  0  0  0  0  0  0  0  0  0  0  0
   -1.4043   -1.8928   -1.8766 H   0  0  0  0  0  0  0  0  0  0  0  0
   -2.8130   -1.7137    0.0030 H   0  0  0  0  0  0  0  0  0  0  0  0
   -4.6795    2.8924   -0.1969 H   0  0  0  0  0  0  0  0  0  0  0  0
   -2.5915    2.3641   -1.3971 H   0  0  0  0  0  0  0  0  0  0  0  0
   -6.5943    2.1346    1.2908 H   0  0  0  0  0  0  0  0  0  0  0  0
   -7.6583    0.2905    2.5421 H   0  0  0  0  0  0  0  0  0  0  0  0
    3.5833   -0.2571   -2.6770 H   0  0  0  0  0  0  0  0  0  0  0  0
    2.4529   -0.6754   -3.9597 H   0  0  0  0  0  0  0  0  0  0  0  0
    3.3799   -1.9517   -3.1727 H   0  0  0  0  0  0  0  0  0  0  0  0
    3.0914   -3.2098   -1.0147 H   0  0  0  0  0  0  0  0  0  0  0  0
  1  2  1  0
  2  3  1  0
  3  4  1  0
  4  5  1  0
  5  6  1  0
  6  7  2  0
  4  8  1  0
  8  9  1  0
  9 10  2  3
 10 11  1  0
 11 12  1  0
 12 13  1  0
 13 14  2  0
 14 15  1  0
 15 16  2  0
 16 17  1  0
 17 18  2  0
 16 19  1  0
 19 20  2  0
 20 21  1  0
 21 22  2  0
 21 23  1  0
  9 24  1  0
  8 25  1  0
  6  2  1  0
 18 13  1  0
 23 15  1  0
  1 26  1  0
  1 27  1  0
  1 28  1  0
  2 29  1  0
  3 30  1  0
  3 31  1  0
  4 32  1  0
  8 33  1  0
 10 34  1  0
 11 35  1  0
 11 36  1  0
 14 37  1  0
 17 38  1  0
 18 39  1  0
 19 40  1  0
 20 41  1  0
 24 42  1  0
 24 43  1  0
 24 44  1  0
 25 45  1  0
M  END
>  <Name>  (41) 
Excavatin H

>  <PubChem ID>  (41) 
15485574

>  <CDB ID>  (41) 
CDB0041

>  <Smiles>  (41) 
CC1CC(OC1=O)C(C(=CCOC2=CC3=C(C=C2)C=CC(=O)O3)C)O

>  <Chemical class>  (41) 
7-Oxygenated Coumarins

>  <Natural source>  (41) 
Clausena excavata

>  <Molecular Formula>  (41) 
C19H20O6

>  <InChI-Key>  (41) 
PAARGKWPJAUKIO-UHFFFAOYSA-N

>  <Total Molweight>  (41) 
344.362

>  <cLogP>  (41) 
2.1259

>  <cLogS>  (41) 
-3.522

>  <H-Acceptors>  (41) 
6

>  <H-Donors>  (41) 
1

>  <Rotatable Bonds>  (41) 
5

>  <Polar Surface Area>  (41) 
82.06

$$$$
CDB0042
     RDKit          3D

 43 45  0  0  0  0  0  0  0  0999 V2000
   -3.5231    0.8876   -2.8504 C   0  0  0  0  0  0  0  0  0  0  0  0
   -3.8172    0.7438   -1.4100 C   0  0  0  0  0  0  0  0  0  0  0  0
   -4.3990   -0.2480   -0.7390 C   0  0  0  0  0  0  0  0  0  0  0  0
   -4.4612    0.0554    0.7112 C   0  0  0  0  0  0  0  0  0  0  0  0
   -3.8995    1.3731    0.8062 O   0  0  0  0  0  0  0  0  0  0  0  0
   -3.4796    1.7774   -0.4245 C   0  0  0  0  0  0  0  0  0  0  0  0
   -2.9334    2.8369   -0.6713 O   0  0  0  0  0  0  0  0  0  0  0  0
   -3.7097   -0.9164    1.6634 C   0  0  0  0  0  0  0  0  0  0  0  0
   -2.2637   -1.2398    1.2937 C   0  0  0  0  0  0  0  0  0  0  0  0
   -1.2652   -0.4695    1.7778 C   0  0  0  0  0  0  0  0  0  0  0  0
    0.2139   -0.5999    1.5578 C   0  0  0  0  0  0  0  0  0  0  0  0
    0.6160    0.5322    0.7914 O   0  0  0  0  0  0  0  0  0  0  0  0
    1.9417    0.6458    0.4818 C   0  0  0  0  0  0  0  0  0  0  0  0
    2.9520   -0.2364    0.8573 C   0  0  0  0  0  0  0  0  0  0  0  0
    4.2634    0.0256    0.4567 C   0  0  0  0  0  0  0  0  0  0  0  0
    4.5951    1.1430   -0.3066 C   0  0  0  0  0  0  0  0  0  0  0  0
    3.5820    2.0238   -0.6795 C   0  0  0  0  0  0  0  0  0  0  0  0
    2.2632    1.7725   -0.2850 C   0  0  0  0  0  0  0  0  0  0  0  0
    5.9820    1.3524   -0.6866 C   0  0  0  0  0  0  0  0  0  0  0  0
    6.9101    0.4723   -0.2991 C   0  0  0  0  0  0  0  0  0  0  0  0
    6.5847   -0.7174    0.5071 C   0  0  0  0  0  0  0  0  0  0  0  0
    7.4619   -1.5046    0.8431 O   0  0  0  0  0  0  0  0  0  0  0  0
    5.2534   -0.8949    0.8585 O   0  0  0  0  0  0  0  0  0  0  0  0
   -2.0378   -2.4206    0.3844 C   0  0  0  0  0  0  0  0  0  0  0  0
   -4.4433   -2.1364    1.8002 O   0  0  0  0  0  0  0  0  0  0  0  0
   -4.0313    1.7654   -3.2616 H   0  0  0  0  0  0  0  0  0  0  0  0
   -2.4469    1.0028   -3.0132 H   0  0  0  0  0  0  0  0  0  0  0  0
   -3.8565    0.0106   -3.4145 H   0  0  0  0  0  0  0  0  0  0  0  0
   -4.7774   -1.1628   -1.1714 H   0  0  0  0  0  0  0  0  0  0  0  0
   -5.5129    0.1146    1.0171 H   0  0  0  0  0  0  0  0  0  0  0  0
   -3.7141   -0.4516    2.6590 H   0  0  0  0  0  0  0  0  0  0  0  0
   -1.5251    0.3842    2.4053 H   0  0  0  0  0  0  0  0  0  0  0  0
    0.4751   -1.5268    1.0401 H   0  0  0  0  0  0  0  0  0  0  0  0
    0.7069   -0.5881    2.5376 H   0  0  0  0  0  0  0  0  0  0  0  0
    2.7600   -1.1219    1.4517 H   0  0  0  0  0  0  0  0  0  0  0  0
    3.7974    2.9080   -1.2740 H   0  0  0  0  0  0  0  0  0  0  0  0
    1.4736    2.4631   -0.5773 H   0  0  0  0  0  0  0  0  0  0  0  0
    6.2438    2.2217   -1.2798 H   0  0  0  0  0  0  0  0  0  0  0  0
    7.9544    0.5915   -0.5609 H   0  0  0  0  0  0  0  0  0  0  0  0
   -2.1125   -3.3527    0.9538 H   0  0  0  0  0  0  0  0  0  0  0  0
   -1.0623   -2.3997   -0.1073 H   0  0  0  0  0  0  0  0  0  0  0  0
   -2.7800   -2.4541   -0.4176 H   0  0  0  0  0  0  0  0  0  0  0  0
   -3.9791   -2.6620    2.4751 H   0  0  0  0  0  0  0  0  0  0  0  0
  1  2  1  0
  2  3  2  0
  3  4  1  0
  4  5  1  0
  5  6  1  0
  6  7  2  0
  4  8  1  0
  8  9  1  0
  9 10  2  3
 10 11  1  0
 11 12  1  0
 12 13  1  0
 13 14  2  0
 14 15  1  0
 15 16  2  0
 16 17  1  0
 17 18  2  0
 16 19  1  0
 19 20  2  0
 20 21  1  0
 21 22  2  0
 21 23  1  0
  9 24  1  0
  8 25  1  0
  6  2  1  0
 18 13  1  0
 23 15  1  0
  1 26  1  0
  1 27  1  0
  1 28  1  0
  3 29  1  0
  4 30  1  0
  8 31  1  0
 10 32  1  0
 11 33  1  0
 11 34  1  0
 14 35  1  0
 17 36  1  0
 18 37  1  0
 19 38  1  0
 20 39  1  0
 24 40  1  0
 24 41  1  0
 24 42  1  0
 25 43  1  0
M  END
>  <Name>  (42) 
Excavatin F

>  <PubChem ID>  (42) 
15485573

>  <CDB ID>  (42) 
CDB0042

>  <Smiles>  (42) 
CC1=CC(OC1=O)C(C(=CCOC2=CC3=C(C=C2)C=CC(=O)O3)C)O

>  <Chemical class>  (42) 
7-Oxygenated Coumarins

>  <Natural source>  (42) 
Clausena excavata

>  <Molecular Formula>  (42) 
C19H18O6

>  <InChI-Key>  (42) 
JYYSLADUUKHTSY-UHFFFAOYSA-N

>  <Total Molweight>  (42) 
342.346

>  <cLogP>  (42) 
2.0214

>  <cLogS>  (42) 
-3.258

>  <H-Acceptors>  (42) 
6

>  <H-Donors>  (42) 
1

>  <Rotatable Bonds>  (42) 
5

>  <Polar Surface Area>  (42) 
82.06

$$$$
CDB0043
     RDKit          3D

 45 47  0  0  0  0  0  0  0  0999 V2000
    2.0238    2.3221   -2.0498 C   0  0  0  0  0  0  0  0  0  0  0  0
    1.4274    1.7609   -0.7869 C   0  0  0  0  0  0  0  0  0  0  0  0
    0.1783    1.2604   -0.6858 C   0  0  0  0  0  0  0  0  0  0  0  0
   -0.8723    1.1723   -1.7586 C   0  0  0  0  0  0  0  0  0  0  0  0
   -2.1492    1.5054   -1.2073 O   0  0  0  0  0  0  0  0  0  0  0  0
   -2.9699    0.4974   -0.7848 C   0  0  0  0  0  0  0  0  0  0  0  0
   -4.2916    0.8833   -0.5551 C   0  0  0  0  0  0  0  0  0  0  0  0
   -5.2177   -0.0575   -0.1108 C   0  0  0  0  0  0  0  0  0  0  0  0
   -4.8580   -1.3816    0.1207 C   0  0  0  0  0  0  0  0  0  0  0  0
   -3.5345   -1.7647   -0.0968 C   0  0  0  0  0  0  0  0  0  0  0  0
   -2.5928   -0.8270   -0.5449 C   0  0  0  0  0  0  0  0  0  0  0  0
   -5.8690   -2.3164    0.5852 C   0  0  0  0  0  0  0  0  0  0  0  0
   -7.1199   -1.8873    0.7789 C   0  0  0  0  0  0  0  0  0  0  0  0
   -7.5242   -0.4903    0.5393 C   0  0  0  0  0  0  0  0  0  0  0  0
   -8.6821   -0.1350    0.7267 O   0  0  0  0  0  0  0  0  0  0  0  0
   -6.5395    0.3826    0.0977 O   0  0  0  0  0  0  0  0  0  0  0  0
    2.3149    1.8315    0.4419 C   0  0  0  0  0  0  0  0  0  0  0  0
    3.0705    0.5339    0.7496 C   0  0  0  0  0  0  0  0  0  0  0  0
    4.1292    0.1629   -0.2702 C   0  0  0  0  0  0  0  0  0  0  0  0
    5.1030   -0.6631    0.5456 C   0  0  0  0  0  0  0  0  0  0  0  0
    4.9759    0.0147    1.9045 C   0  0  0  0  0  0  0  0  0  0  0  0
    5.8107   -0.0311    2.7952 O   0  0  0  0  0  0  0  0  0  0  0  0
    3.7867    0.6824    1.9866 O   0  0  0  0  0  0  0  0  0  0  0  0
    4.7063   -2.1312    0.6593 C   0  0  0  0  0  0  0  0  0  0  0  0
    6.3979   -0.5838   -0.0259 O   0  0  0  0  0  0  0  0  0  0  0  0
    1.3924    2.1722   -2.9286 H   0  0  0  0  0  0  0  0  0  0  0  0
    2.1937    3.3980   -1.9385 H   0  0  0  0  0  0  0  0  0  0  0  0
    2.9828    1.8442   -2.2691 H   0  0  0  0  0  0  0  0  0  0  0  0
   -0.1488    0.8928    0.2866 H   0  0  0  0  0  0  0  0  0  0  0  0
   -0.6923    1.9125   -2.5434 H   0  0  0  0  0  0  0  0  0  0  0  0
   -0.8692    0.1925   -2.2481 H   0  0  0  0  0  0  0  0  0  0  0  0
   -4.5980    1.9118   -0.7247 H   0  0  0  0  0  0  0  0  0  0  0  0
   -3.2172   -2.7893    0.0827 H   0  0  0  0  0  0  0  0  0  0  0  0
   -1.5701   -1.1633   -0.6812 H   0  0  0  0  0  0  0  0  0  0  0  0
   -5.5946   -3.3492    0.7685 H   0  0  0  0  0  0  0  0  0  0  0  0
   -7.9042   -2.5499    1.1242 H   0  0  0  0  0  0  0  0  0  0  0  0
    3.0207    2.6680    0.3526 H   0  0  0  0  0  0  0  0  0  0  0  0
    1.7048    2.0940    1.3178 H   0  0  0  0  0  0  0  0  0  0  0  0
    2.3536   -0.2854    0.8875 H   0  0  0  0  0  0  0  0  0  0  0  0
    4.6367    1.0579   -0.6535 H   0  0  0  0  0  0  0  0  0  0  0  0
    3.7193   -0.3716   -1.1332 H   0  0  0  0  0  0  0  0  0  0  0  0
    5.4375   -2.6801    1.2643 H   0  0  0  0  0  0  0  0  0  0  0  0
    4.6945   -2.6076   -0.3273 H   0  0  0  0  0  0  0  0  0  0  0  0
    3.7243   -2.2664    1.1238 H   0  0  0  0  0  0  0  0  0  0  0  0
    7.0302   -0.8218    0.6803 H   0  0  0  0  0  0  0  0  0  0  0  0
  1  2  1  0
  2  3  2  3
  3  4  1  0
  4  5  1  0
  5  6  1  0
  6  7  2  0
  7  8  1  0
  8  9  2  0
  9 10  1  0
 10 11  2  0
  9 12  1  0
 12 13  2  0
 13 14  1  0
 14 15  2  0
 14 16  1  0
  2 17  1  0
 17 18  1  0
 18 19  1  0
 19 20  1  0
 20 21  1  0
 21 22  2  0
 21 23  1  0
 20 24  1  0
 20 25  1  0
 11  6  1  0
 16  8  1  0
 23 18  1  0
  1 26  1  0
  1 27  1  0
  1 28  1  0
  3 29  1  0
  4 30  1  0
  4 31  1  0
  7 32  1  0
 10 33  1  0
 11 34  1  0
 12 35  1  0
 13 36  1  0
 17 37  1  0
 17 38  1  0
 18 39  1  0
 19 40  1  0
 19 41  1  0
 24 42  1  0
 24 43  1  0
 24 44  1  0
 25 45  1  0
M  END
>  <Name>  (43) 
Excavatin I

>  <PubChem ID>  (43) 
15872297

>  <CDB ID>  (43) 
CDB0043

>  <Smiles>  (43) 
CC(=CCOC1=CC2=C(C=C1)C=CC(=O)O2)CC3CC(C(=O)O3)(C)O

>  <Chemical class>  (43) 
7-Oxygenated Coumarins

>  <Natural source>  (43) 
Clausena excavata

>  <Molecular Formula>  (43) 
C19H20O6

>  <InChI-Key>  (43) 
QEUOCUPPPSPUBH-UHFFFAOYSA-N

>  <Total Molweight>  (43) 
344.362

>  <cLogP>  (43) 
2.3243

>  <cLogS>  (43) 
-3.471

>  <H-Acceptors>  (43) 
6

>  <H-Donors>  (43) 
1

>  <Rotatable Bonds>  (43) 
5

>  <Polar Surface Area>  (43) 
82.06

$$$$
CDB0044
     RDKit          3D

 43 45  0  0  0  0  0  0  0  0999 V2000
   -2.1664    0.8275    2.7819 C   0  0  0  0  0  0  0  0  0  0  0  0
   -1.7078    1.1848    1.3911 C   0  0  0  0  0  0  0  0  0  0  0  0
   -0.3941    1.3284    1.1199 C   0  0  0  0  0  0  0  0  0  0  0  0
    0.2423    1.7000   -0.1910 C   0  0  0  0  0  0  0  0  0  0  0  0
    1.0269    0.6053   -0.6638 O   0  0  0  0  0  0  0  0  0  0  0  0
    2.3632    0.5683   -0.3822 C   0  0  0  0  0  0  0  0  0  0  0  0
    3.0716   -0.4155   -1.0749 C   0  0  0  0  0  0  0  0  0  0  0  0
    4.4415   -0.5573   -0.8659 C   0  0  0  0  0  0  0  0  0  0  0  0
    5.1307    0.2578    0.0264 C   0  0  0  0  0  0  0  0  0  0  0  0
    6.5598    0.0617    0.2019 C   0  0  0  0  0  0  0  0  0  0  0  0
    7.1812   -0.8947   -0.4949 C   0  0  0  0  0  0  0  0  0  0  0  0
    6.4719   -1.7704   -1.4449 C   0  0  0  0  0  0  0  0  0  0  0  0
    7.0766   -2.6373   -2.0652 O   0  0  0  0  0  0  0  0  0  0  0  0
    5.1077   -1.5623   -1.5941 O   0  0  0  0  0  0  0  0  0  0  0  0
    4.4223    1.2347    0.7257 C   0  0  0  0  0  0  0  0  0  0  0  0
    3.0425    1.3873    0.5239 C   0  0  0  0  0  0  0  0  0  0  0  0
   -2.8131    1.3919    0.3752 C   0  0  0  0  0  0  0  0  0  0  0  0
   -3.0377    0.2123   -0.5859 C   0  0  1  0  0  0  0  0  0  0  0  0
   -3.5917   -1.0109    0.0414 C   0  0  0  0  0  0  0  0  0  0  0  0
   -4.7820   -1.3175   -0.4717 C   0  0  0  0  0  0  0  0  0  0  0  0
   -5.7211   -2.4181   -0.1748 C   0  0  0  0  0  0  0  0  0  0  0  0
   -5.8887   -3.2400   -1.3205 O   0  0  0  0  0  0  0  0  0  0  0  0
   -5.0812   -0.2944   -1.4722 C   0  0  0  0  0  0  0  0  0  0  0  0
   -6.0973   -0.2540   -2.1429 O   0  0  0  0  0  0  0  0  0  0  0  0
   -4.0483    0.5877   -1.5347 O   0  0  0  0  0  0  0  0  0  0  0  0
   -2.8030    1.6219    3.1851 H   0  0  0  0  0  0  0  0  0  0  0  0
   -2.7383   -0.1048    2.7737 H   0  0  0  0  0  0  0  0  0  0  0  0
   -1.3277    0.6935    3.4734 H   0  0  0  0  0  0  0  0  0  0  0  0
    0.3196    1.1573    1.9245 H   0  0  0  0  0  0  0  0  0  0  0  0
    0.8127    2.6316   -0.1101 H   0  0  0  0  0  0  0  0  0  0  0  0
   -0.5122    1.8878   -0.9603 H   0  0  0  0  0  0  0  0  0  0  0  0
    2.5579   -1.0671   -1.7764 H   0  0  0  0  0  0  0  0  0  0  0  0
    7.1024    0.6943    0.8955 H   0  0  0  0  0  0  0  0  0  0  0  0
    8.2447   -1.0749   -0.3950 H   0  0  0  0  0  0  0  0  0  0  0  0
    4.9281    1.8848    1.4359 H   0  0  0  0  0  0  0  0  0  0  0  0
    2.5316    2.1499    1.1025 H   0  0  0  0  0  0  0  0  0  0  0  0
   -2.6074    2.2965   -0.2128 H   0  0  0  0  0  0  0  0  0  0  0  0
   -3.7524    1.6329    0.8926 H   0  0  0  0  0  0  0  0  0  0  0  0
   -2.1236   -0.0227   -1.1421 H   0  0  0  0  0  0  0  0  0  0  0  0
   -3.0771   -1.5853    0.7982 H   0  0  0  0  0  0  0  0  0  0  0  0
   -6.6993   -2.0337    0.1320 H   0  0  0  0  0  0  0  0  0  0  0  0
   -5.3426   -3.0488    0.6359 H   0  0  0  0  0  0  0  0  0  0  0  0
   -6.3222   -2.6886   -2.0006 H   0  0  0  0  0  0  0  0  0  0  0  0
  1  2  1  0
  2  3  2  3
  3  4  1  0
  4  5  1  0
  5  6  1  0
  6  7  2  0
  7  8  1  0
  8  9  2  0
  9 10  1  0
 10 11  2  0
 11 12  1  0
 12 13  2  0
 12 14  1  0
  9 15  1  0
 15 16  2  0
  2 17  1  0
 17 18  1  0
 18 19  1  0
 19 20  2  0
 20 21  1  0
 21 22  1  0
 20 23  1  0
 23 24  2  0
 23 25  1  0
 16  6  1  0
 25 18  1  0
 14  8  1  0
  1 26  1  0
  1 27  1  0
  1 28  1  0
  3 29  1  0
  4 30  1  0
  4 31  1  0
  7 32  1  0
 10 33  1  0
 11 34  1  0
 15 35  1  0
 16 36  1  0
 17 37  1  0
 17 38  1  0
 18 39  1  6
 19 40  1  0
 21 41  1  0
 21 42  1  0
 22 43  1  0
M  END
>  <Name>  (44) 
Excavatin E

>  <PubChem ID>  (44) 
15872300

>  <CDB ID>  (44) 
CDB0044

>  <Smiles>  (44) 
CC(=CCOC1=CC2=C(C=CC(=O)O2)C=C1)C[C@H]1C=C(CO)C(=O)O1

>  <Chemical class>  (44) 
7-Oxygenated Coumarins

>  <Natural source>  (44) 
Clausena excavata

>  <Molecular Formula>  (44) 
C19H18O6

>  <InChI-Key>  (44) 
NYBMIJVQEQCOLI-INIZCTEOSA-N

>  <Total Molweight>  (44) 
342.346

>  <cLogP>  (44) 
2.1165

>  <cLogS>  (44) 
-3.15

>  <H-Acceptors>  (44) 
6

>  <H-Donors>  (44) 
1

>  <Rotatable Bonds>  (44) 
6

>  <Polar Surface Area>  (44) 
82.06

$$$$
CDB0045
     RDKit          3D

 43 46  0  0  0  0  0  0  0  0999 V2000
    6.3603    0.7090   -1.3996 C   0  0  0  0  0  0  0  0  0  0  0  0
    5.3044    0.6898   -0.3663 C   0  0  0  0  0  0  0  0  0  0  0  0
    4.4270   -0.2576   -0.0419 C   0  0  0  0  0  0  0  0  0  0  0  0
    3.5516    0.1807    1.0699 C   0  0  0  0  0  0  0  0  0  0  0  0
    4.0310    1.4993    1.3728 O   0  0  0  0  0  0  0  0  0  0  0  0
    5.0519    1.8216    0.5314 C   0  0  0  0  0  0  0  0  0  0  0  0
    5.6588    2.8766    0.5271 O   0  0  0  0  0  0  0  0  0  0  0  0
    2.0645    0.2697    0.7083 C   0  0  0  0  0  0  0  0  0  0  0  0
    1.3837   -1.0690    0.5522 C   0  0  0  0  0  0  0  0  0  0  0  0
    0.2972   -1.2789   -0.4983 C   0  0  0  0  0  0  0  0  0  0  0  0
    1.6452   -1.7288   -0.6964 O   0  0  0  0  0  0  0  0  0  0  0  0
   -0.1603   -0.2211   -1.4516 C   0  0  0  0  0  0  0  0  0  0  0  0
   -0.7912    0.8513   -0.7468 O   0  0  0  0  0  0  0  0  0  0  0  0
   -2.0939    0.7204   -0.3592 C   0  0  0  0  0  0  0  0  0  0  0  0
   -2.9400   -0.3486   -0.6413 C   0  0  0  0  0  0  0  0  0  0  0  0
   -4.2512   -0.3225   -0.1614 C   0  0  0  0  0  0  0  0  0  0  0  0
   -4.7443    0.7418    0.5896 C   0  0  0  0  0  0  0  0  0  0  0  0
   -3.8975    1.8122    0.8674 C   0  0  0  0  0  0  0  0  0  0  0  0
   -2.5808    1.7972    0.3932 C   0  0  0  0  0  0  0  0  0  0  0  0
   -6.1204    0.7010    1.0546 C   0  0  0  0  0  0  0  0  0  0  0  0
   -6.8844   -0.3541    0.7556 C   0  0  0  0  0  0  0  0  0  0  0  0
   -6.3861   -1.4934   -0.0348 C   0  0  0  0  0  0  0  0  0  0  0  0
   -7.1140   -2.4464   -0.2872 O   0  0  0  0  0  0  0  0  0  0  0  0
   -5.0689   -1.4295   -0.4692 O   0  0  0  0  0  0  0  0  0  0  0  0
    1.3893   -1.9886    1.7372 C   0  0  0  0  0  0  0  0  0  0  0  0
    6.3846   -0.2301   -1.9619 H   0  0  0  0  0  0  0  0  0  0  0  0
    7.3440    0.8525   -0.9418 H   0  0  0  0  0  0  0  0  0  0  0  0
    6.1876    1.5226   -2.1110 H   0  0  0  0  0  0  0  0  0  0  0  0
    4.3528   -1.2246   -0.5195 H   0  0  0  0  0  0  0  0  0  0  0  0
    3.7127   -0.4413    1.9561 H   0  0  0  0  0  0  0  0  0  0  0  0
    1.5417    0.8312    1.4939 H   0  0  0  0  0  0  0  0  0  0  0  0
    1.9566    0.8850   -0.1930 H   0  0  0  0  0  0  0  0  0  0  0  0
   -0.4628   -2.0269   -0.3145 H   0  0  0  0  0  0  0  0  0  0  0  0
   -0.8024   -0.6289   -2.2404 H   0  0  0  0  0  0  0  0  0  0  0  0
    0.6976    0.2142   -1.9772 H   0  0  0  0  0  0  0  0  0  0  0  0
   -2.6260   -1.2060   -1.2239 H   0  0  0  0  0  0  0  0  0  0  0  0
   -4.2425    2.6638    1.4482 H   0  0  0  0  0  0  0  0  0  0  0  0
   -1.9241    2.6370    0.6131 H   0  0  0  0  0  0  0  0  0  0  0  0
   -6.5084    1.5289    1.6378 H   0  0  0  0  0  0  0  0  0  0  0  0
   -7.9149   -0.4237    1.0824 H   0  0  0  0  0  0  0  0  0  0  0  0
    0.7434   -2.8593    1.5809 H   0  0  0  0  0  0  0  0  0  0  0  0
    2.3981   -2.3624    1.9373 H   0  0  0  0  0  0  0  0  0  0  0  0
    1.0300   -1.4642    2.6284 H   0  0  0  0  0  0  0  0  0  0  0  0
  1  2  1  0
  2  3  2  0
  3  4  1  0
  4  5  1  0
  5  6  1  0
  6  7  2  0
  4  8  1  0
  8  9  1  0
  9 10  1  0
 10 11  1  0
 10 12  1  0
 12 13  1  0
 13 14  1  0
 14 15  2  0
 15 16  1  0
 16 17  2  0
 17 18  1  0
 18 19  2  0
 17 20  1  0
 20 21  2  0
 21 22  1  0
 22 23  2  0
 22 24  1  0
  9 25  1  0
  6  2  1  0
 11  9  1  0
 19 14  1  0
 24 16  1  0
  1 26  1  0
  1 27  1  0
  1 28  1  0
  3 29  1  0
  4 30  1  0
  8 31  1  0
  8 32  1  0
 10 33  1  0
 12 34  1  0
 12 35  1  0
 15 36  1  0
 18 37  1  0
 19 38  1  0
 20 39  1  0
 21 40  1  0
 25 41  1  0
 25 42  1  0
 25 43  1  0
M  END
>  <Name>  (45) 
Excavatin K

>  <PubChem ID>  (45) 
15485571

>  <CDB ID>  (45) 
CDB0045

>  <Smiles>  (45) 
CC1=CC(OC1=O)CC2(C(O2)COC3=CC4=C(C=C3)C=CC(=O)O4)C

>  <Chemical class>  (45) 
7-Oxygenated Coumarins

>  <Natural source>  (45) 
Clausena excavata

>  <Molecular Formula>  (45) 
C19H18O6

>  <InChI-Key>  (45) 
NXSSKLILAXGDEK-UHFFFAOYSA-N

>  <Total Molweight>  (45) 
342.346

>  <cLogP>  (45) 
1.6124

>  <cLogS>  (45) 
-3.553

>  <H-Acceptors>  (45) 
6

>  <H-Donors>  (45) 
0

>  <Rotatable Bonds>  (45) 
5

>  <Polar Surface Area>  (45) 
74.36

$$$$
CDB0046
     RDKit          3D

 46 48  0  0  0  0  0  0  0  0999 V2000
   -1.1007   -2.7255   -1.5139 C   0  0  0  0  0  0  0  0  0  0  0  0
   -1.3432   -1.6977   -0.4346 C   0  0  0  0  0  0  0  0  0  0  0  0
   -0.4913   -0.6883   -0.1566 C   0  0  0  0  0  0  0  0  0  0  0  0
    0.8337   -0.3778   -0.7965 C   0  0  0  0  0  0  0  0  0  0  0  0
    1.7531   -0.0956    0.2606 O   0  0  0  0  0  0  0  0  0  0  0  0
    3.0252    0.2607   -0.0925 C   0  0  0  0  0  0  0  0  0  0  0  0
    3.8752    0.5216    0.9836 C   0  0  0  0  0  0  0  0  0  0  0  0
    5.1957    0.8946    0.7441 C   0  0  0  0  0  0  0  0  0  0  0  0
    5.6964    1.0151   -0.5487 C   0  0  0  0  0  0  0  0  0  0  0  0
    4.8470    0.7541   -1.6241 C   0  0  0  0  0  0  0  0  0  0  0  0
    3.5153    0.3781   -1.3967 C   0  0  0  0  0  0  0  0  0  0  0  0
    7.0833    1.4073   -0.7344 C   0  0  0  0  0  0  0  0  0  0  0  0
    7.8472    1.6443    0.3365 C   0  0  0  0  0  0  0  0  0  0  0  0
    7.3385    1.5241    1.7146 C   0  0  0  0  0  0  0  0  0  0  0  0
    8.0699    1.7512    2.6715 O   0  0  0  0  0  0  0  0  0  0  0  0
    6.0111    1.1472    1.8647 O   0  0  0  0  0  0  0  0  0  0  0  0
   -2.6511   -1.9373    0.3121 C   0  0  0  0  0  0  0  0  0  0  0  0
   -3.1520   -0.8814    1.3159 C   0  0  0  0  0  0  0  0  0  0  0  0
   -3.6251    0.4233    0.6942 C   0  0  0  0  0  0  0  0  0  0  0  0
   -5.1057    0.1923    0.4529 C   0  0  0  0  0  0  0  0  0  0  0  0
   -5.4383   -0.8926    1.4625 C   0  0  0  0  0  0  0  0  0  0  0  0
   -6.5616   -1.3148    1.6989 O   0  0  0  0  0  0  0  0  0  0  0  0
   -4.2982   -1.4052    2.0076 O   0  0  0  0  0  0  0  0  0  0  0  0
   -5.9774    1.4331    0.6719 C   0  0  0  0  0  0  0  0  0  0  0  0
   -5.7061    2.0796    1.9093 O   0  0  0  0  0  0  0  0  0  0  0  0
   -5.3079   -0.3033   -0.8748 O   0  0  0  0  0  0  0  0  0  0  0  0
   -0.2220   -2.5204   -2.1282 H   0  0  0  0  0  0  0  0  0  0  0  0
   -0.9723   -3.7163   -1.0658 H   0  0  0  0  0  0  0  0  0  0  0  0
   -1.9572   -2.7639   -2.1958 H   0  0  0  0  0  0  0  0  0  0  0  0
   -0.7356    0.0155    0.6358 H   0  0  0  0  0  0  0  0  0  0  0  0
    0.7090    0.5087   -1.4291 H   0  0  0  0  0  0  0  0  0  0  0  0
    1.2115   -1.2156   -1.3875 H   0  0  0  0  0  0  0  0  0  0  0  0
    3.5093    0.4338    2.0028 H   0  0  0  0  0  0  0  0  0  0  0  0
    5.2057    0.8384   -2.6473 H   0  0  0  0  0  0  0  0  0  0  0  0
    2.8898    0.1843   -2.2623 H   0  0  0  0  0  0  0  0  0  0  0  0
    7.4792    1.5021   -1.7393 H   0  0  0  0  0  0  0  0  0  0  0  0
    8.8854    1.9386    0.2437 H   0  0  0  0  0  0  0  0  0  0  0  0
   -2.5508   -2.8891    0.8527 H   0  0  0  0  0  0  0  0  0  0  0  0
   -3.4435   -2.1180   -0.4258 H   0  0  0  0  0  0  0  0  0  0  0  0
   -2.3807   -0.6890    2.0699 H   0  0  0  0  0  0  0  0  0  0  0  0
   -3.4613    1.2230    1.4257 H   0  0  0  0  0  0  0  0  0  0  0  0
   -3.0783    0.6918   -0.2145 H   0  0  0  0  0  0  0  0  0  0  0  0
   -5.8074    2.1557   -0.1344 H   0  0  0  0  0  0  0  0  0  0  0  0
   -7.0405    1.1672    0.6446 H   0  0  0  0  0  0  0  0  0  0  0  0
   -6.3541    2.8004    2.0065 H   0  0  0  0  0  0  0  0  0  0  0  0
   -6.2193   -0.6538   -0.9097 H   0  0  0  0  0  0  0  0  0  0  0  0
  1  2  1  0
  2  3  2  3
  3  4  1  0
  4  5  1  0
  5  6  1  0
  6  7  2  0
  7  8  1  0
  8  9  2  0
  9 10  1  0
 10 11  2  0
  9 12  1  0
 12 13  2  0
 13 14  1  0
 14 15  2  0
 14 16  1  0
  2 17  1  0
 17 18  1  0
 18 19  1  0
 19 20  1  0
 20 21  1  0
 21 22  2  0
 21 23  1  0
 20 24  1  0
 24 25  1  0
 20 26  1  0
 11  6  1  0
 16  8  1  0
 23 18  1  0
  1 27  1  0
  1 28  1  0
  1 29  1  0
  3 30  1  0
  4 31  1  0
  4 32  1  0
  7 33  1  0
 10 34  1  0
 11 35  1  0
 12 36  1  0
 13 37  1  0
 17 38  1  0
 17 39  1  0
 18 40  1  0
 19 41  1  0
 19 42  1  0
 24 43  1  0
 24 44  1  0
 25 45  1  0
 26 46  1  0
M  END
>  <Name>  (46) 
Excavatin J

>  <PubChem ID>  (46) 
15485576

>  <CDB ID>  (46) 
CDB0046

>  <Smiles>  (46) 
CC(=CCOC1=CC2=C(C=C1)C=CC(=O)O2)CC3CC(C(=O)O3)(CO)O

>  <Chemical class>  (46) 
7-Oxygenated Coumarins

>  <Natural source>  (46) 
Clausena excavata

>  <Molecular Formula>  (46) 
C19H20O7

>  <InChI-Key>  (46) 
UZEQGDCXQPIQSW-UHFFFAOYSA-N

>  <Total Molweight>  (46) 
360.361

>  <cLogP>  (46) 
1.3976

>  <cLogS>  (46) 
-2.964

>  <H-Acceptors>  (46) 
7

>  <H-Donors>  (46) 
2

>  <Rotatable Bonds>  (46) 
6

>  <Polar Surface Area>  (46) 
102.29

$$$$
CDB0047
     RDKit          3D

 46 49  0  0  0  0  0  0  0  0999 V2000
   -4.8154    2.7024   -0.1983 C   0  0  0  0  0  0  0  0  0  0  0  0
   -4.9795    1.2957   -0.7634 C   0  0  0  0  0  0  0  0  0  0  0  0
   -3.6796    0.6819   -1.2417 C   0  0  0  0  0  0  0  0  0  0  0  0
   -3.0957    0.0968    0.0307 C   0  0  0  0  0  0  0  0  0  0  0  0
   -4.2379   -0.3383    0.7849 O   0  0  0  0  0  0  0  0  0  0  0  0
   -5.3501    0.3275    0.3531 C   0  0  0  0  0  0  0  0  0  0  0  0
   -6.4752    0.1614    0.7991 O   0  0  0  0  0  0  0  0  0  0  0  0
   -2.1636   -1.0870   -0.2474 C   0  0  0  0  0  0  0  0  0  0  0  0
   -1.2714   -1.4171    0.9289 C   0  0  0  0  0  0  0  0  0  0  0  0
    0.1868   -1.8268    0.7311 C   0  0  0  0  0  0  0  0  0  0  0  0
   -0.1870   -0.4914    1.0973 O   0  0  0  0  0  0  0  0  0  0  0  0
    0.8234   -1.9666   -0.6148 C   0  0  0  0  0  0  0  0  0  0  0  0
    2.1683   -2.4417   -0.4942 O   0  0  0  0  0  0  0  0  0  0  0  0
    3.1688   -1.5335   -0.2902 C   0  0  0  0  0  0  0  0  0  0  0  0
    3.0141   -0.1670   -0.0725 C   0  0  0  0  0  0  0  0  0  0  0  0
    4.1483    0.6237    0.1222 C   0  0  0  0  0  0  0  0  0  0  0  0
    5.4343    0.0887    0.1105 C   0  0  0  0  0  0  0  0  0  0  0  0
    5.5871   -1.2796   -0.1020 C   0  0  0  0  0  0  0  0  0  0  0  0
    4.4577   -2.0824   -0.2997 C   0  0  0  0  0  0  0  0  0  0  0  0
    6.5690    0.9714    0.3221 C   0  0  0  0  0  0  0  0  0  0  0  0
    6.3585    2.2761    0.5215 C   0  0  0  0  0  0  0  0  0  0  0  0
    5.0086    2.8671    0.5356 C   0  0  0  0  0  0  0  0  0  0  0  0
    4.8547    4.0695    0.7165 O   0  0  0  0  0  0  0  0  0  0  0  0
    3.9415    2.0027    0.3340 O   0  0  0  0  0  0  0  0  0  0  0  0
   -1.9367   -1.8058    2.2167 C   0  0  0  0  0  0  0  0  0  0  0  0
   -5.9126    1.3359   -1.8300 O   0  0  0  0  0  0  0  0  0  0  0  0
   -4.1277    2.7354    0.6528 H   0  0  0  0  0  0  0  0  0  0  0  0
   -5.7815    3.0945    0.1407 H   0  0  0  0  0  0  0  0  0  0  0  0
   -4.4505    3.3901   -0.9693 H   0  0  0  0  0  0  0  0  0  0  0  0
   -3.0054    1.3980   -1.7227 H   0  0  0  0  0  0  0  0  0  0  0  0
   -3.8872   -0.1067   -1.9775 H   0  0  0  0  0  0  0  0  0  0  0  0
   -2.5784    0.8677    0.6147 H   0  0  0  0  0  0  0  0  0  0  0  0
   -1.5489   -0.8472   -1.1218 H   0  0  0  0  0  0  0  0  0  0  0  0
   -2.7483   -1.9809   -0.4965 H   0  0  0  0  0  0  0  0  0  0  0  0
    0.6470   -2.4598    1.4800 H   0  0  0  0  0  0  0  0  0  0  0  0
    0.7674   -1.0615   -1.2309 H   0  0  0  0  0  0  0  0  0  0  0  0
    0.2815   -2.7434   -1.1662 H   0  0  0  0  0  0  0  0  0  0  0  0
    2.0429    0.3122   -0.0386 H   0  0  0  0  0  0  0  0  0  0  0  0
    6.5727   -1.7376   -0.1163 H   0  0  0  0  0  0  0  0  0  0  0  0
    4.5834   -3.1506   -0.4644 H   0  0  0  0  0  0  0  0  0  0  0  0
    7.5714    0.5581    0.3159 H   0  0  0  0  0  0  0  0  0  0  0  0
    7.1758    2.9681    0.6833 H   0  0  0  0  0  0  0  0  0  0  0  0
   -2.6774   -2.5925    2.0418 H   0  0  0  0  0  0  0  0  0  0  0  0
   -1.2159   -2.1861    2.9485 H   0  0  0  0  0  0  0  0  0  0  0  0
   -2.4402   -0.9470    2.6712 H   0  0  0  0  0  0  0  0  0  0  0  0
   -6.7970    1.4256   -1.4243 H   0  0  0  0  0  0  0  0  0  0  0  0
  1  2  1  0
  2  3  1  0
  3  4  1  0
  4  5  1  0
  5  6  1  0
  6  7  2  0
  4  8  1  0
  8  9  1  0
  9 10  1  0
 10 11  1  0
 10 12  1  0
 12 13  1  0
 13 14  1  0
 14 15  2  0
 15 16  1  0
 16 17  2  0
 17 18  1  0
 18 19  2  0
 17 20  1  0
 20 21  2  0
 21 22  1  0
 22 23  2  0
 22 24  1  0
  9 25  1  0
  2 26  1  0
  6  2  1  0
 11  9  1  0
 19 14  1  0
 24 16  1  0
  1 27  1  0
  1 28  1  0
  1 29  1  0
  3 30  1  0
  3 31  1  0
  4 32  1  0
  8 33  1  0
  8 34  1  0
 10 35  1  0
 12 36  1  0
 12 37  1  0
 15 38  1  0
 18 39  1  0
 19 40  1  0
 20 41  1  0
 21 42  1  0
 25 43  1  0
 25 44  1  0
 25 45  1  0
 26 46  1  0
M  END
>  <Name>  (47) 
Excavatin M

>  <PubChem ID>  (47) 
15871351

>  <CDB ID>  (47) 
CDB0047

>  <Smiles>  (47) 
CC1(CC(OC1=O)CC2(C(O2)COC3=CC4=C(C=C3)C=CC(=O)O4)C)O

>  <Chemical class>  (47) 
7-Oxygenated Coumarins

>  <Natural source>  (47) 
Clausena excavata

>  <Molecular Formula>  (47) 
C19H20O7

>  <InChI-Key>  (47) 
UMYAEKVHXDURJS-UHFFFAOYSA-N

>  <Total Molweight>  (47) 
360.361

>  <cLogP>  (47) 
0.8935

>  <cLogS>  (47) 
-3.367

>  <H-Acceptors>  (47) 
7

>  <H-Donors>  (47) 
1

>  <Rotatable Bonds>  (47) 
5

>  <Polar Surface Area>  (47) 
94.59

$$$$
CDB0048
     RDKit          3D

 53 56  0  0  0  0  0  0  0  0999 V2000
    0.2292    1.2065    2.7970 C   0  0  0  0  0  0  0  0  0  0  0  0
   -0.9392    0.6876    1.9946 C   0  0  0  0  0  0  0  0  0  0  0  0
   -2.1844    0.8182    2.4831 C   0  0  0  0  0  0  0  0  0  0  0  0
   -3.4286    0.3018    1.8436 C   0  0  0  0  0  0  0  0  0  0  0  0
   -3.2581   -0.2215    0.4189 C   0  0  0  0  0  0  0  0  0  0  0  0
   -3.5676    0.7714   -0.7419 C   0  0  0  0  0  0  0  0  0  0  0  0
   -2.6300    0.2514   -1.8244 C   0  0  0  0  0  0  0  0  0  0  0  0
   -2.4993    0.7549   -2.9331 O   0  0  0  0  0  0  0  0  0  0  0  0
   -1.9070   -1.0035   -1.4029 C   0  0  0  0  0  0  0  0  0  0  0  0
   -1.8577   -0.8468    0.1254 C   0  0  0  0  0  0  0  0  0  0  0  0
   -0.6192   -0.0186    0.6723 C   0  0  0  0  0  0  0  0  0  0  0  0
    0.0869    0.9489   -0.3261 C   0  0  0  0  0  0  0  0  0  0  0  0
    1.4254    1.2643    0.0895 O   0  0  0  0  0  0  0  0  0  0  0  0
    2.4543    0.4362   -0.2559 C   0  0  0  0  0  0  0  0  0  0  0  0
    3.7099    0.8708    0.1730 C   0  0  0  0  0  0  0  0  0  0  0  0
    4.8402    0.1087   -0.1124 C   0  0  0  0  0  0  0  0  0  0  0  0
    4.7535   -1.0860   -0.8198 C   0  0  0  0  0  0  0  0  0  0  0  0
    3.4994   -1.5220   -1.2465 C   0  0  0  0  0  0  0  0  0  0  0  0
    2.3538   -0.7635   -0.9640 C   0  0  0  0  0  0  0  0  0  0  0  0
    5.9683   -1.8365   -1.0890 C   0  0  0  0  0  0  0  0  0  0  0  0
    7.1403   -1.3665   -0.6511 C   0  0  0  0  0  0  0  0  0  0  0  0
    7.2560   -0.1053    0.1029 C   0  0  0  0  0  0  0  0  0  0  0  0
    8.3488    0.2913    0.4913 O   0  0  0  0  0  0  0  0  0  0  0  0
    6.0813    0.5934    0.3446 O   0  0  0  0  0  0  0  0  0  0  0  0
   -1.7945   -2.2575    0.7636 C   0  0  0  0  0  0  0  0  0  0  0  0
   -5.0124    0.5888   -1.2342 C   0  0  0  0  0  0  0  0  0  0  0  0
   -3.3332    2.2535   -0.4550 C   0  0  0  0  0  0  0  0  0  0  0  0
   -0.0581    1.4563    3.8244 H   0  0  0  0  0  0  0  0  0  0  0  0
    0.6383    2.1144    2.3447 H   0  0  0  0  0  0  0  0  0  0  0  0
    1.0182    0.4503    2.8608 H   0  0  0  0  0  0  0  0  0  0  0  0
   -2.3321    1.3122    3.4430 H   0  0  0  0  0  0  0  0  0  0  0  0
   -3.7885   -0.5206    2.4763 H   0  0  0  0  0  0  0  0  0  0  0  0
   -4.2121    1.0660    1.8833 H   0  0  0  0  0  0  0  0  0  0  0  0
   -3.9976   -1.0333    0.3241 H   0  0  0  0  0  0  0  0  0  0  0  0
   -2.5289   -1.8534   -1.7080 H   0  0  0  0  0  0  0  0  0  0  0  0
   -0.9312   -1.1059   -1.8771 H   0  0  0  0  0  0  0  0  0  0  0  0
    0.1433   -0.7661    0.9349 H   0  0  0  0  0  0  0  0  0  0  0  0
    0.1089    0.6019   -1.3600 H   0  0  0  0  0  0  0  0  0  0  0  0
   -0.4353    1.9073   -0.3559 H   0  0  0  0  0  0  0  0  0  0  0  0
    3.8055    1.8007    0.7267 H   0  0  0  0  0  0  0  0  0  0  0  0
    3.3947   -2.4514   -1.8015 H   0  0  0  0  0  0  0  0  0  0  0  0
    1.4011   -1.1452   -1.3116 H   0  0  0  0  0  0  0  0  0  0  0  0
    5.9070   -2.7669   -1.6424 H   0  0  0  0  0  0  0  0  0  0  0  0
    8.0698   -1.8932   -0.8299 H   0  0  0  0  0  0  0  0  0  0  0  0
   -2.6406   -2.8806    0.4521 H   0  0  0  0  0  0  0  0  0  0  0  0
   -1.8089   -2.2072    1.8574 H   0  0  0  0  0  0  0  0  0  0  0  0
   -0.8799   -2.7807    0.4616 H   0  0  0  0  0  0  0  0  0  0  0  0
   -5.2274    1.2500   -2.0818 H   0  0  0  0  0  0  0  0  0  0  0  0
   -5.7310    0.8135   -0.4385 H   0  0  0  0  0  0  0  0  0  0  0  0
   -5.1958   -0.4361   -1.5777 H   0  0  0  0  0  0  0  0  0  0  0  0
   -3.3423    2.8405   -1.3807 H   0  0  0  0  0  0  0  0  0  0  0  0
   -4.1145    2.6620    0.1954 H   0  0  0  0  0  0  0  0  0  0  0  0
   -2.3786    2.4452    0.0320 H   0  0  0  0  0  0  0  0  0  0  0  0
  1  2  1  0
  2  3  2  0
  3  4  1  0
  4  5  1  0
  5  6  1  0
  6  7  1  0
  7  8  2  0
  7  9  1  0
  9 10  1  0
 10 11  1  0
 11 12  1  0
 12 13  1  0
 13 14  1  0
 14 15  2  0
 15 16  1  0
 16 17  2  0
 17 18  1  0
 18 19  2  0
 17 20  1  0
 20 21  2  0
 21 22  1  0
 22 23  2  0
 22 24  1  0
 10 25  1  0
  6 26  1  0
  6 27  1  0
 11  2  1  0
 10  5  1  0
 19 14  1  0
 24 16  1  0
  1 28  1  0
  1 29  1  0
  1 30  1  0
  3 31  1  0
  4 32  1  0
  4 33  1  0
  5 34  1  0
  9 35  1  0
  9 36  1  0
 11 37  1  0
 12 38  1  0
 12 39  1  0
 15 40  1  0
 18 41  1  0
 19 42  1  0
 20 43  1  0
 21 44  1  0
 25 45  1  0
 25 46  1  0
 25 47  1  0
 26 48  1  0
 26 49  1  0
 26 50  1  0
 27 51  1  0
 27 52  1  0
 27 53  1  0
M  END
>  <Name>  (48) 
Tavicone

>  <PubChem ID>  (48) 
3694933

>  <CDB ID>  (48) 
CDB0048

>  <Smiles>  (48) 
CC1=CCC2C(C(=O)CC2(C1COC3=CC4=C(C=C3)C=CC(=O)O4)C)(C)C

>  <Chemical class>  (48) 
7-Oxygenated Coumarins

>  <Natural source>  (48) 
Ferula karatavica

>  <Molecular Formula>  (48) 
C23H26O4

>  <InChI-Key>  (48) 
BUPDBEMKWPDILI-UHFFFAOYSA-N

>  <Total Molweight>  (48) 
366.455

>  <cLogP>  (48) 
4.1539

>  <cLogS>  (48) 
-4.752

>  <H-Acceptors>  (48) 
4

>  <H-Donors>  (48) 
0

>  <Rotatable Bonds>  (48) 
3

>  <Polar Surface Area>  (48) 
52.6

$$$$
CDB0049
     RDKit          3D

 57 58  0  0  0  0  0  0  0  0999 V2000
    2.2332   -3.2978    1.4327 C   0  0  0  0  0  0  0  0  0  0  0  0
    2.0729   -2.7060    0.2401 C   0  0  0  0  0  0  0  0  0  0  0  0
    1.8878   -1.2240   -0.0488 C   0  0  2  0  0  0  0  0  0  0  0  0
    1.9821   -0.2945    1.1818 C   0  0  0  0  0  0  0  0  0  0  0  0
    0.5024   -1.0234   -0.7322 C   0  0  0  0  0  0  0  0  0  0  0  0
   -0.7212   -1.4142    0.1031 C   0  0  0  0  0  0  0  0  0  0  0  0
   -1.9930   -1.2038   -0.6755 C   0  0  0  0  0  0  0  0  0  0  0  0
   -2.8823   -0.1999   -0.5336 C   0  0  0  0  0  0  0  0  0  0  0  0
   -2.6980    0.9623    0.4058 C   0  0  0  0  0  0  0  0  0  0  0  0
   -4.1295   -0.1573   -1.4016 C   0  0  0  0  0  0  0  0  0  0  0  0
   -5.3850   -0.7521   -0.7484 C   0  0  0  0  0  0  0  0  0  0  0  0
   -5.9598    0.0870    0.3609 C   0  0  0  0  0  0  0  0  0  0  0  0
   -6.9145    1.0324    0.2609 C   0  0  0  0  0  0  0  0  0  0  0  0
   -7.4045    1.7632    1.4831 C   0  0  0  0  0  0  0  0  0  0  0  0
   -7.5655    1.4638   -1.0241 C   0  0  0  0  0  0  0  0  0  0  0  0
    2.8260   -0.8456   -1.0974 O   0  0  0  0  0  0  0  0  0  0  0  0
    4.0823   -0.4579   -0.7320 C   0  0  0  0  0  0  0  0  0  0  0  0
    4.4514    0.8530   -1.0245 C   0  0  0  0  0  0  0  0  0  0  0  0
    5.7368    1.2803   -0.7032 C   0  0  0  0  0  0  0  0  0  0  0  0
    6.6676    0.4242   -0.1177 C   0  0  0  0  0  0  0  0  0  0  0  0
    7.9941    0.9311    0.1914 C   0  0  0  0  0  0  0  0  0  0  0  0
    8.2931    2.2031   -0.0895 C   0  0  0  0  0  0  0  0  0  0  0  0
    7.3248    3.1267   -0.7071 C   0  0  0  0  0  0  0  0  0  0  0  0
    7.6356    4.2878   -0.9467 O   0  0  0  0  0  0  0  0  0  0  0  0
    6.0658    2.6186   -0.9955 O   0  0  0  0  0  0  0  0  0  0  0  0
    6.2986   -0.8968    0.1426 C   0  0  0  0  0  0  0  0  0  0  0  0
    5.0088   -1.3395   -0.1739 C   0  0  0  0  0  0  0  0  0  0  0  0
    2.3561   -4.3752    1.4994 H   0  0  0  0  0  0  0  0  0  0  0  0
    2.2470   -2.7428    2.3646 H   0  0  0  0  0  0  0  0  0  0  0  0
    2.0742   -3.3435   -0.6444 H   0  0  0  0  0  0  0  0  0  0  0  0
    1.2254   -0.5250    1.9379 H   0  0  0  0  0  0  0  0  0  0  0  0
    1.8592    0.7538    0.8858 H   0  0  0  0  0  0  0  0  0  0  0  0
    2.9557   -0.3674    1.6791 H   0  0  0  0  0  0  0  0  0  0  0  0
    0.4129    0.0302   -1.0357 H   0  0  0  0  0  0  0  0  0  0  0  0
    0.4867   -1.5839   -1.6792 H   0  0  0  0  0  0  0  0  0  0  0  0
   -0.7494   -0.8598    1.0445 H   0  0  0  0  0  0  0  0  0  0  0  0
   -0.6746   -2.4742    0.3783 H   0  0  0  0  0  0  0  0  0  0  0  0
   -2.1992   -1.9813   -1.4114 H   0  0  0  0  0  0  0  0  0  0  0  0
   -3.3054    0.8328    1.3055 H   0  0  0  0  0  0  0  0  0  0  0  0
   -1.6573    1.0925    0.7155 H   0  0  0  0  0  0  0  0  0  0  0  0
   -2.9918    1.8991   -0.0798 H   0  0  0  0  0  0  0  0  0  0  0  0
   -3.9393   -0.7198   -2.3261 H   0  0  0  0  0  0  0  0  0  0  0  0
   -4.3185    0.8729   -1.7296 H   0  0  0  0  0  0  0  0  0  0  0  0
   -5.1624   -1.7494   -0.3476 H   0  0  0  0  0  0  0  0  0  0  0  0
   -6.1423   -0.9183   -1.5232 H   0  0  0  0  0  0  0  0  0  0  0  0
   -5.5493   -0.1369    1.3453 H   0  0  0  0  0  0  0  0  0  0  0  0
   -6.9103    1.4207    2.3984 H   0  0  0  0  0  0  0  0  0  0  0  0
   -8.4812    1.6097    1.6095 H   0  0  0  0  0  0  0  0  0  0  0  0
   -7.2145    2.8370    1.3848 H   0  0  0  0  0  0  0  0  0  0  0  0
   -8.6310    1.2126   -1.0092 H   0  0  0  0  0  0  0  0  0  0  0  0
   -7.1236    0.9998   -1.9092 H   0  0  0  0  0  0  0  0  0  0  0  0
   -7.4681    2.5475   -1.1495 H   0  0  0  0  0  0  0  0  0  0  0  0
    3.7449    1.5326   -1.4906 H   0  0  0  0  0  0  0  0  0  0  0  0
    8.7231    0.2691    0.6452 H   0  0  0  0  0  0  0  0  0  0  0  0
    9.2694    2.6207    0.1242 H   0  0  0  0  0  0  0  0  0  0  0  0
    7.0053   -1.5966    0.5818 H   0  0  0  0  0  0  0  0  0  0  0  0
    4.7485   -2.3776    0.0052 H   0  0  0  0  0  0  0  0  0  0  0  0
  1  2  2  0
  2  3  1  0
  3  4  1  0
  3  5  1  0
  5  6  1  0
  6  7  1  0
  7  8  2  3
  8  9  1  0
  8 10  1  0
 10 11  1  0
 11 12  1  0
 12 13  2  3
 13 14  1  0
 13 15  1  0
  3 16  1  6
 16 17  1  0
 17 18  2  0
 18 19  1  0
 19 20  2  0
 20 21  1  0
 21 22  2  0
 22 23  1  0
 23 24  2  0
 23 25  1  0
 20 26  1  0
 26 27  2  0
 27 17  1  0
 25 19  1  0
  1 28  1  0
  1 29  1  0
  2 30  1  0
  4 31  1  0
  4 32  1  0
  4 33  1  0
  5 34  1  0
  5 35  1  0
  6 36  1  0
  6 37  1  0
  7 38  1  0
  9 39  1  0
  9 40  1  0
  9 41  1  0
 10 42  1  0
 10 43  1  0
 11 44  1  0
 11 45  1  0
 12 46  1  0
 14 47  1  0
 14 48  1  0
 14 49  1  0
 15 50  1  0
 15 51  1  0
 15 52  1  0
 18 53  1  0
 21 54  1  0
 22 55  1  0
 26 56  1  0
 27 57  1  0
M  END
>  <Name>  (49) 
Kokanicin (Cocanicin)

>  <PubChem ID>  (49) 
101288412

>  <CDB ID>  (49) 
CDB0049

>  <Smiles>  (49) 
C=C[C@](C)(CCC=C(C)CCC=C(C)C)OC1=CC2=C(C=CC(=O)O2)C=C1

>  <Chemical class>  (49) 
7-Oxygenated Coumarins

>  <Natural source>  (49) 
Ferula kokanica

>  <Molecular Formula>  (49) 
C24H30O3

>  <InChI-Key>  (49) 
MYHPTRDZDZEMML-XMMPIXPASA-N

>  <Total Molweight>  (49) 
366.499

>  <cLogP>  (49) 
7.1861

>  <cLogS>  (49) 
-5.336

>  <H-Acceptors>  (49) 
3

>  <H-Donors>  (49) 
0

>  <Rotatable Bonds>  (49) 
9

>  <Polar Surface Area>  (49) 
35.53

$$$$
CDB0050
     RDKit          3D

 57 58  0  0  0  0  0  0  0  0999 V2000
   -6.7439    1.5745   -2.6037 C   0  0  0  0  0  0  0  0  0  0  0  0
   -6.0458    0.6471   -1.6435 C   0  0  0  0  0  0  0  0  0  0  0  0
   -5.9804    0.9417   -0.3302 C   0  0  0  0  0  0  0  0  0  0  0  0
   -5.3533    0.1269    0.7699 C   0  0  0  0  0  0  0  0  0  0  0  0
   -4.0851    0.7603    1.3607 C   0  0  0  0  0  0  0  0  0  0  0  0
   -2.8661    0.6720    0.4639 C   0  0  0  0  0  0  0  0  0  0  0  0
   -2.0349   -0.3887    0.4166 C   0  0  0  0  0  0  0  0  0  0  0  0
   -2.1564   -1.6840    1.1766 C   0  0  0  0  0  0  0  0  0  0  0  0
   -1.0548   -1.8627    2.2328 C   0  0  0  0  0  0  0  0  0  0  0  0
    0.3474   -2.0192    1.6642 C   0  0  0  0  0  0  0  0  0  0  0  0
    1.2659   -1.0491    1.8525 C   0  0  0  0  0  0  0  0  0  0  0  0
    2.6822   -0.9944    1.3588 C   0  0  0  0  0  0  0  0  0  0  0  0
    2.8576    0.2750    0.7259 O   0  0  0  0  0  0  0  0  0  0  0  0
    4.0964    0.5552    0.2196 C   0  0  0  0  0  0  0  0  0  0  0  0
    5.2155   -0.2725    0.2807 C   0  0  0  0  0  0  0  0  0  0  0  0
    6.4136    0.1639   -0.2876 C   0  0  0  0  0  0  0  0  0  0  0  0
    6.5273    1.4027   -0.9146 C   0  0  0  0  0  0  0  0  0  0  0  0
    5.4065    2.2286   -0.9734 C   0  0  0  0  0  0  0  0  0  0  0  0
    4.1994    1.8030   -0.4077 C   0  0  0  0  0  0  0  0  0  0  0  0
    7.8063    1.7914   -1.4844 C   0  0  0  0  0  0  0  0  0  0  0  0
    8.8461    0.9563   -1.3968 C   0  0  0  0  0  0  0  0  0  0  0  0
    8.7516   -0.3590   -0.7390 C   0  0  0  0  0  0  0  0  0  0  0  0
    9.7266   -1.0990   -0.6778 O   0  0  0  0  0  0  0  0  0  0  0  0
    7.5195   -0.7071   -0.2024 O   0  0  0  0  0  0  0  0  0  0  0  0
    0.6030   -3.3095    0.9328 C   0  0  0  0  0  0  0  0  0  0  0  0
   -2.5834    1.8963   -0.3685 C   0  0  0  0  0  0  0  0  0  0  0  0
   -5.4435   -0.5701   -2.2897 C   0  0  0  0  0  0  0  0  0  0  0  0
   -7.5599    1.0495   -3.1111 H   0  0  0  0  0  0  0  0  0  0  0  0
   -6.0400    1.9382   -3.3594 H   0  0  0  0  0  0  0  0  0  0  0  0
   -7.1727    2.4480   -2.1014 H   0  0  0  0  0  0  0  0  0  0  0  0
   -6.4414    1.8671    0.0152 H   0  0  0  0  0  0  0  0  0  0  0  0
   -5.1561   -0.9032    0.4590 H   0  0  0  0  0  0  0  0  0  0  0  0
   -6.0991    0.0479    1.5719 H   0  0  0  0  0  0  0  0  0  0  0  0
   -3.8644    0.2696    2.3174 H   0  0  0  0  0  0  0  0  0  0  0  0
   -4.2750    1.8091    1.6243 H   0  0  0  0  0  0  0  0  0  0  0  0
   -1.1716   -0.3413   -0.2481 H   0  0  0  0  0  0  0  0  0  0  0  0
   -2.1338   -2.5107    0.4565 H   0  0  0  0  0  0  0  0  0  0  0  0
   -3.1269   -1.7574    1.6780 H   0  0  0  0  0  0  0  0  0  0  0  0
   -1.2826   -2.7536    2.8324 H   0  0  0  0  0  0  0  0  0  0  0  0
   -1.0944   -1.0193    2.9351 H   0  0  0  0  0  0  0  0  0  0  0  0
    0.9714   -0.1627    2.4146 H   0  0  0  0  0  0  0  0  0  0  0  0
    3.3510   -1.0772    2.2234 H   0  0  0  0  0  0  0  0  0  0  0  0
    2.8953   -1.7907    0.6406 H   0  0  0  0  0  0  0  0  0  0  0  0
    5.1931   -1.2468    0.7548 H   0  0  0  0  0  0  0  0  0  0  0  0
    5.4527    3.2027   -1.4534 H   0  0  0  0  0  0  0  0  0  0  0  0
    3.3261    2.4505   -0.4560 H   0  0  0  0  0  0  0  0  0  0  0  0
    7.8986    2.7550   -1.9732 H   0  0  0  0  0  0  0  0  0  0  0  0
    9.8162    1.2073   -1.8080 H   0  0  0  0  0  0  0  0  0  0  0  0
    1.6646   -3.5056    0.7656 H   0  0  0  0  0  0  0  0  0  0  0  0
    0.1032   -3.3021   -0.0406 H   0  0  0  0  0  0  0  0  0  0  0  0
    0.2185   -4.1557    1.5124 H   0  0  0  0  0  0  0  0  0  0  0  0
   -2.4538    2.7711    0.2772 H   0  0  0  0  0  0  0  0  0  0  0  0
   -1.6704    1.7902   -0.9641 H   0  0  0  0  0  0  0  0  0  0  0  0
   -3.4048    2.0953   -1.0619 H   0  0  0  0  0  0  0  0  0  0  0  0
   -4.7767   -0.2702   -3.1053 H   0  0  0  0  0  0  0  0  0  0  0  0
   -6.2332   -1.2039   -2.7061 H   0  0  0  0  0  0  0  0  0  0  0  0
   -4.8513   -1.1809   -1.6053 H   0  0  0  0  0  0  0  0  0  0  0  0
  1  2  1  0
  2  3  2  3
  3  4  1  0
  4  5  1  0
  5  6  1  0
  6  7  2  3
  7  8  1  0
  8  9  1  0
  9 10  1  0
 10 11  2  3
 11 12  1  0
 12 13  1  0
 13 14  1  0
 14 15  2  0
 15 16  1  0
 16 17  2  0
 17 18  1  0
 18 19  2  0
 17 20  1  0
 20 21  2  0
 21 22  1  0
 22 23  2  0
 22 24  1  0
 10 25  1  0
  6 26  1  0
  2 27  1  0
 19 14  1  0
 24 16  1  0
  1 28  1  0
  1 29  1  0
  1 30  1  0
  3 31  1  0
  4 32  1  0
  4 33  1  0
  5 34  1  0
  5 35  1  0
  7 36  1  0
  8 37  1  0
  8 38  1  0
  9 39  1  0
  9 40  1  0
 11 41  1  0
 12 42  1  0
 12 43  1  0
 15 44  1  0
 18 45  1  0
 19 46  1  0
 20 47  1  0
 21 48  1  0
 25 49  1  0
 25 50  1  0
 25 51  1  0
 26 52  1  0
 26 53  1  0
 26 54  1  0
 27 55  1  0
 27 56  1  0
 27 57  1  0
M  END
>  <Name>  (50) 
Umbelliprenin

>  <PubChem ID>  (50) 
1781413

>  <CDB ID>  (50) 
CDB0050

>  <Smiles>  (50) 
CC(=CCCC(=CCCC(=CCOC1=CC2=C(C=C1)C=CC(=O)O2)C)C)C

>  <Chemical class>  (50) 
7-Oxygenated Coumarins

>  <Natural source>  (50) 
Angelica archangelica

>  <Molecular Formula>  (50) 
C24H30O3

>  <InChI-Key>  (50) 
GNMUGVNEWCZUAA-UHFFFAOYSA-N

>  <Total Molweight>  (50) 
366.499

>  <cLogP>  (50) 
7.4403

>  <cLogS>  (50) 
-5.076

>  <H-Acceptors>  (50) 
3

>  <H-Donors>  (50) 
0

>  <Rotatable Bonds>  (50) 
9

>  <Polar Surface Area>  (50) 
35.53

$$$$
CDB0051
     RDKit          3D

 59 60  0  0  0  0  0  0  0  0999 V2000
   -8.8421    2.3537   -1.8576 C   0  0  0  0  0  0  0  0  0  0  0  0
   -7.4030    2.1511   -1.4607 C   0  0  0  0  0  0  0  0  0  0  0  0
   -6.6643    1.1742   -2.0221 C   0  0  0  0  0  0  0  0  0  0  0  0
   -5.2068    0.8668   -1.7655 C   0  0  0  0  0  0  0  0  0  0  0  0
   -5.0038   -0.1997   -0.6678 C   0  0  0  0  0  0  0  0  0  0  0  0
   -3.5690   -0.5021   -0.2474 C   0  0  0  0  0  0  0  0  0  0  0  0
   -2.4798    0.0201   -0.8528 C   0  0  0  0  0  0  0  0  0  0  0  0
   -1.0274   -0.2506   -0.5547 C   0  0  0  0  0  0  0  0  0  0  0  0
   -0.3421    1.0013    0.0335 C   0  0  0  0  0  0  0  0  0  0  0  0
    1.0736    0.8771    0.6033 C   0  0  0  0  0  0  0  0  0  0  0  0
    1.8141   -0.2496    0.5405 C   0  0  0  0  0  0  0  0  0  0  0  0
    3.2141   -0.4823    1.0353 C   0  0  0  0  0  0  0  0  0  0  0  0
    3.9278   -1.1516   -0.0068 O   0  0  0  0  0  0  0  0  0  0  0  0
    5.2283   -1.4911    0.2434 C   0  0  0  0  0  0  0  0  0  0  0  0
    5.9206   -1.2727    1.4325 C   0  0  0  0  0  0  0  0  0  0  0  0
    7.2517   -1.6827    1.5275 C   0  0  0  0  0  0  0  0  0  0  0  0
    7.9117   -2.3046    0.4699 C   0  0  0  0  0  0  0  0  0  0  0  0
    7.2165   -2.5221   -0.7179 C   0  0  0  0  0  0  0  0  0  0  0  0
    5.8817   -2.1161   -0.8260 C   0  0  0  0  0  0  0  0  0  0  0  0
    9.2985   -2.7042    0.6397 C   0  0  0  0  0  0  0  0  0  0  0  0
    9.9126   -2.4691    1.8032 C   0  0  0  0  0  0  0  0  0  0  0  0
    9.2366   -1.8138    2.9367 C   0  0  0  0  0  0  0  0  0  0  0  0
    9.8317   -1.6149    3.9895 O   0  0  0  0  0  0  0  0  0  0  0  0
    7.9125   -1.4412    2.7498 O   0  0  0  0  0  0  0  0  0  0  0  0
    1.5514    2.1593    1.2405 C   0  0  0  0  0  0  0  0  0  0  0  0
   -0.4256   -0.5928   -1.8032 O   0  0  0  0  0  0  0  0  0  0  0  0
   -3.4851   -1.4448    0.9308 C   0  0  0  0  0  0  0  0  0  0  0  0
   -5.5615   -1.4430   -1.1045 O   0  0  0  0  0  0  0  0  0  0  0  0
   -6.9075    3.1098   -0.4129 C   0  0  0  0  0  0  0  0  0  0  0  0
   -8.9860    3.3628   -2.2575 H   0  0  0  0  0  0  0  0  0  0  0  0
   -9.1655    1.6428   -2.6252 H   0  0  0  0  0  0  0  0  0  0  0  0
   -9.4968    2.2261   -0.9893 H   0  0  0  0  0  0  0  0  0  0  0  0
   -7.1291    0.5317   -2.7704 H   0  0  0  0  0  0  0  0  0  0  0  0
   -4.6715    1.7885   -1.5117 H   0  0  0  0  0  0  0  0  0  0  0  0
   -4.7847    0.5108   -2.7145 H   0  0  0  0  0  0  0  0  0  0  0  0
   -5.5552    0.1143    0.2284 H   0  0  0  0  0  0  0  0  0  0  0  0
   -2.6114    0.7041   -1.6893 H   0  0  0  0  0  0  0  0  0  0  0  0
   -0.9008   -1.1063    0.1127 H   0  0  0  0  0  0  0  0  0  0  0  0
   -0.3066    1.7784   -0.7429 H   0  0  0  0  0  0  0  0  0  0  0  0
   -0.9779    1.3816    0.8451 H   0  0  0  0  0  0  0  0  0  0  0  0
    1.3969   -1.1296    0.0551 H   0  0  0  0  0  0  0  0  0  0  0  0
    3.1604   -1.1254    1.9215 H   0  0  0  0  0  0  0  0  0  0  0  0
    3.7251    0.4526    1.2782 H   0  0  0  0  0  0  0  0  0  0  0  0
    5.4642   -0.7950    2.2916 H   0  0  0  0  0  0  0  0  0  0  0  0
    7.6944   -3.0035   -1.5672 H   0  0  0  0  0  0  0  0  0  0  0  0
    5.3418   -2.2865   -1.7555 H   0  0  0  0  0  0  0  0  0  0  0  0
    9.8155   -3.1880   -0.1816 H   0  0  0  0  0  0  0  0  0  0  0  0
   10.9450   -2.7508    1.9709 H   0  0  0  0  0  0  0  0  0  0  0  0
    2.5115    2.0664    1.7514 H   0  0  0  0  0  0  0  0  0  0  0  0
    0.8289    2.4986    1.9908 H   0  0  0  0  0  0  0  0  0  0  0  0
    1.6509    2.9411    0.4803 H   0  0  0  0  0  0  0  0  0  0  0  0
   -0.9055   -1.3714   -2.1351 H   0  0  0  0  0  0  0  0  0  0  0  0
   -4.1941   -1.1429    1.7096 H   0  0  0  0  0  0  0  0  0  0  0  0
   -2.5015   -1.4590    1.4057 H   0  0  0  0  0  0  0  0  0  0  0  0
   -3.7285   -2.4658    0.6201 H   0  0  0  0  0  0  0  0  0  0  0  0
   -6.5192   -1.3002   -1.1906 H   0  0  0  0  0  0  0  0  0  0  0  0
   -5.8977    2.8819   -0.0627 H   0  0  0  0  0  0  0  0  0  0  0  0
   -7.5636    3.0806    0.4636 H   0  0  0  0  0  0  0  0  0  0  0  0
   -6.9043    4.1309   -0.8079 H   0  0  0  0  0  0  0  0  0  0  0  0
  1  2  1  0
  2  3  2  3
  3  4  1  0
  4  5  1  0
  5  6  1  0
  6  7  2  3
  7  8  1  0
  8  9  1  0
  9 10  1  0
 10 11  2  3
 11 12  1  0
 12 13  1  0
 13 14  1  0
 14 15  2  0
 15 16  1  0
 16 17  2  0
 17 18  1  0
 18 19  2  0
 17 20  1  0
 20 21  2  0
 21 22  1  0
 22 23  2  0
 22 24  1  0
 10 25  1  0
  8 26  1  0
  6 27  1  0
  5 28  1  0
  2 29  1  0
 19 14  1  0
 24 16  1  0
  1 30  1  0
  1 31  1  0
  1 32  1  0
  3 33  1  0
  4 34  1  0
  4 35  1  0
  5 36  1  0
  7 37  1  0
  8 38  1  0
  9 39  1  0
  9 40  1  0
 11 41  1  0
 12 42  1  0
 12 43  1  0
 15 44  1  0
 18 45  1  0
 19 46  1  0
 20 47  1  0
 21 48  1  0
 25 49  1  0
 25 50  1  0
 25 51  1  0
 26 52  1  0
 27 53  1  0
 27 54  1  0
 27 55  1  0
 28 56  1  0
 29 57  1  0
 29 58  1  0
 29 59  1  0
M  END
>  <Name>  (51) 
Asacoumarin A

>  <PubChem ID>  (51) 
14313756

>  <CDB ID>  (51) 
CDB0051

>  <Smiles>  (51) 
CC(=CCC(C(=CC(CC(=CCOC1=CC2=C(C=C1)C=CC(=O)O2)C)O)C)O)C

>  <Chemical class>  (51) 
7-Oxygenated Coumarins

>  <Natural source>  (51) 
Ferula assafoetida

>  <Molecular Formula>  (51) 
C24H30O5

>  <InChI-Key>  (51) 
NFXNEAJDYTXPLG-UHFFFAOYSA-N

>  <Total Molweight>  (51) 
398.497

>  <cLogP>  (51) 
5.3967

>  <cLogS>  (51) 
-4.278

>  <H-Acceptors>  (51) 
5

>  <H-Donors>  (51) 
2

>  <Rotatable Bonds>  (51) 
9

>  <Polar Surface Area>  (51) 
75.99

$$$$
CDB0052
     RDKit          3D

 61 62  0  0  0  0  0  0  0  0999 V2000
    1.3217   -4.3186    0.1836 C   0  0  0  0  0  0  0  0  0  0  0  0
    1.0970   -2.8346    0.0467 C   0  0  0  0  0  0  0  0  0  0  0  0
    2.1428   -1.9827    0.0198 C   0  0  0  0  0  0  0  0  0  0  0  0
    2.1134   -0.4855   -0.1198 C   0  0  0  0  0  0  0  0  0  0  0  0
    2.8863    0.1085    0.9260 O   0  0  0  0  0  0  0  0  0  0  0  0
    4.1833    0.4578    0.6754 C   0  0  0  0  0  0  0  0  0  0  0  0
    4.7523    1.2997    1.6328 C   0  0  0  0  0  0  0  0  0  0  0  0
    6.0741    1.7146    1.4888 C   0  0  0  0  0  0  0  0  0  0  0  0
    6.8540    1.3037    0.4121 C   0  0  0  0  0  0  0  0  0  0  0  0
    8.2273    1.7690    0.3170 C   0  0  0  0  0  0  0  0  0  0  0  0
    8.7118    2.5807    1.2619 C   0  0  0  0  0  0  0  0  0  0  0  0
    7.9043    3.0301    2.4102 C   0  0  0  0  0  0  0  0  0  0  0  0
    8.3843    3.7767    3.2556 O   0  0  0  0  0  0  0  0  0  0  0  0
    6.5967    2.5701    2.4786 O   0  0  0  0  0  0  0  0  0  0  0  0
    6.2899    0.4525   -0.5381 C   0  0  0  0  0  0  0  0  0  0  0  0
    4.9598    0.0285   -0.4047 C   0  0  0  0  0  0  0  0  0  0  0  0
   -0.3559   -2.4132   -0.0372 C   0  0  0  0  0  0  0  0  0  0  0  0
   -0.8854   -2.4611   -1.4743 C   0  0  0  0  0  0  0  0  0  0  0  0
   -2.3092   -1.9827   -1.5458 C   0  0  0  0  0  0  0  0  0  0  0  0
   -2.7468   -0.7714   -1.9450 C   0  0  0  0  0  0  0  0  0  0  0  0
   -1.8548    0.3545   -2.3928 C   0  0  0  0  0  0  0  0  0  0  0  0
   -4.2300   -0.4678   -1.9639 C   0  0  0  0  0  0  0  0  0  0  0  0
   -4.8790   -0.2211   -0.5900 C   0  0  0  0  0  0  0  0  0  0  0  0
   -4.4452    1.0844    0.0915 C   0  0  2  0  0  0  0  0  0  0  0  0
   -3.1126    0.9361    0.6011 O   0  0  0  0  0  0  0  0  0  0  0  0
   -5.3632    1.5414    1.2632 C   0  0  0  0  0  0  0  0  0  0  0  0
   -6.7554    1.9630    0.7872 C   0  0  0  0  0  0  0  0  0  0  0  0
   -5.4782    0.4923    2.3724 C   0  0  0  0  0  0  0  0  0  0  0  0
   -4.7313    2.6935    1.8605 O   0  0  0  0  0  0  0  0  0  0  0  0
    2.3851   -4.5739    0.2425 H   0  0  0  0  0  0  0  0  0  0  0  0
    0.8409   -4.6928    1.0933 H   0  0  0  0  0  0  0  0  0  0  0  0
    0.9019   -4.8498   -0.6765 H   0  0  0  0  0  0  0  0  0  0  0  0
    3.1452   -2.3999    0.1001 H   0  0  0  0  0  0  0  0  0  0  0  0
    2.4454   -0.1747   -1.1166 H   0  0  0  0  0  0  0  0  0  0  0  0
    1.1013   -0.0881   -0.0105 H   0  0  0  0  0  0  0  0  0  0  0  0
    4.1655    1.6317    2.4847 H   0  0  0  0  0  0  0  0  0  0  0  0
    8.8397    1.4508   -0.5191 H   0  0  0  0  0  0  0  0  0  0  0  0
    9.7292    2.9509    1.2301 H   0  0  0  0  0  0  0  0  0  0  0  0
    6.8730    0.1041   -1.3873 H   0  0  0  0  0  0  0  0  0  0  0  0
    4.5679   -0.6502   -1.1555 H   0  0  0  0  0  0  0  0  0  0  0  0
   -0.4936   -1.4094    0.3804 H   0  0  0  0  0  0  0  0  0  0  0  0
   -0.9586   -3.0685    0.6060 H   0  0  0  0  0  0  0  0  0  0  0  0
   -0.8545   -3.4906   -1.8528 H   0  0  0  0  0  0  0  0  0  0  0  0
   -0.2367   -1.8833   -2.1413 H   0  0  0  0  0  0  0  0  0  0  0  0
   -3.0460   -2.7192   -1.2258 H   0  0  0  0  0  0  0  0  0  0  0  0
   -1.9479    0.4964   -3.4743 H   0  0  0  0  0  0  0  0  0  0  0  0
   -2.1379    1.2911   -1.9024 H   0  0  0  0  0  0  0  0  0  0  0  0
   -0.8003    0.1874   -2.1609 H   0  0  0  0  0  0  0  0  0  0  0  0
   -4.7465   -1.3161   -2.4342 H   0  0  0  0  0  0  0  0  0  0  0  0
   -4.4299    0.3866   -2.6231 H   0  0  0  0  0  0  0  0  0  0  0  0
   -4.6614   -1.0739    0.0648 H   0  0  0  0  0  0  0  0  0  0  0  0
   -5.9618   -0.2082   -0.7539 H   0  0  0  0  0  0  0  0  0  0  0  0
   -4.3981    1.8926   -0.6485 H   0  0  0  0  0  0  0  0  0  0  0  0
   -3.0207    1.6025    1.3114 H   0  0  0  0  0  0  0  0  0  0  0  0
   -6.6847    2.7103   -0.0111 H   0  0  0  0  0  0  0  0  0  0  0  0
   -7.3420    1.1168    0.4183 H   0  0  0  0  0  0  0  0  0  0  0  0
   -7.3155    2.4359    1.6023 H   0  0  0  0  0  0  0  0  0  0  0  0
   -6.0383    0.8927    3.2256 H   0  0  0  0  0  0  0  0  0  0  0  0
   -4.4923    0.2128    2.7600 H   0  0  0  0  0  0  0  0  0  0  0  0
   -5.9862   -0.4136    2.0276 H   0  0  0  0  0  0  0  0  0  0  0  0
   -4.7944    3.4313    1.2280 H   0  0  0  0  0  0  0  0  0  0  0  0
  1  2  1  0
  2  3  2  3
  3  4  1  0
  4  5  1  0
  5  6  1  0
  6  7  2  0
  7  8  1  0
  8  9  2  0
  9 10  1  0
 10 11  2  0
 11 12  1  0
 12 13  2  0
 12 14  1  0
  9 15  1  0
 15 16  2  0
  2 17  1  0
 17 18  1  0
 18 19  1  0
 19 20  2  3
 20 21  1  0
 20 22  1  0
 22 23  1  0
 23 24  1  0
 24 25  1  0
 24 26  1  0
 26 27  1  0
 26 28  1  0
 26 29  1  0
 16  6  1  0
 14  8  1  0
  1 30  1  0
  1 31  1  0
  1 32  1  0
  3 33  1  0
  4 34  1  0
  4 35  1  0
  7 36  1  0
 10 37  1  0
 11 38  1  0
 15 39  1  0
 16 40  1  0
 17 41  1  0
 17 42  1  0
 18 43  1  0
 18 44  1  0
 19 45  1  0
 21 46  1  0
 21 47  1  0
 21 48  1  0
 22 49  1  0
 22 50  1  0
 23 51  1  0
 23 52  1  0
 24 53  1  6
 25 54  1  0
 27 55  1  0
 27 56  1  0
 27 57  1  0
 28 58  1  0
 28 59  1  0
 28 60  1  0
 29 61  1  0
M  END
>  <Name>  (52) 
Karatavicinol

>  <PubChem ID>  (52) 
44386968

>  <CDB ID>  (52) 
CDB0052

>  <Smiles>  (52) 
CC(=CCOC1=CC2=C(C=CC(=O)O2)C=C1)CCC=C(C)CC[C@H](O)C(C)(C)O

>  <Chemical class>  (52) 
7-Oxygenated Coumarins

>  <Natural source>  (52) 
Ferula karatavica

>  <Molecular Formula>  (52) 
C24H32O5

>  <InChI-Key>  (52) 
SOTUFGKJQVSOCT-QFIPXVFZSA-N

>  <Total Molweight>  (52) 
400.513

>  <cLogP>  (52) 
5.4231

>  <cLogS>  (52) 
-4.491

>  <H-Acceptors>  (52) 
5

>  <H-Donors>  (52) 
2

>  <Rotatable Bonds>  (52) 
10

>  <Polar Surface Area>  (52) 
75.99

$$$$
CDB0053
     RDKit          3D

103106  0  0  0  0  0  0  0  0999 V2000
    0.3984   -1.8731    1.1100 C   0  0  0  0  0  0  0  0  0  0  0  0
    0.6593   -0.7265    0.1698 C   0  0  0  0  0  0  0  0  0  0  0  0
    1.8122   -0.5274   -0.5005 C   0  0  0  0  0  0  0  0  0  0  0  0
    3.0511   -1.3821   -0.4835 C   0  0  0  0  0  0  0  0  0  0  0  0
    4.1424   -0.7658    0.3993 C   0  0  0  0  0  0  0  0  0  0  0  0
    5.4332   -1.5682    0.3826 C   0  0  0  0  0  0  0  0  0  0  0  0
    6.5172   -1.0883   -0.2617 C   0  0  0  0  0  0  0  0  0  0  0  0
    7.8807   -1.7005   -0.4005 C   0  0  0  0  0  0  0  0  0  0  0  0
    8.8221   -0.7523    0.1016 O   0  0  0  0  0  0  0  0  0  0  0  0
   10.1460   -1.0884    0.0404 C   0  0  0  0  0  0  0  0  0  0  0  0
   11.0136   -0.1290    0.5653 C   0  0  0  0  0  0  0  0  0  0  0  0
   12.3866   -0.3625    0.5557 C   0  0  0  0  0  0  0  0  0  0  0  0
   12.9232   -1.5354    0.0329 C   0  0  0  0  0  0  0  0  0  0  0  0
   12.0563   -2.4940   -0.4921 C   0  0  0  0  0  0  0  0  0  0  0  0
   10.6718   -2.2711   -0.4886 C   0  0  0  0  0  0  0  0  0  0  0  0
   14.3643   -1.7215    0.0514 C   0  0  0  0  0  0  0  0  0  0  0  0
   15.1427   -0.7658    0.5680 C   0  0  0  0  0  0  0  0  0  0  0  0
   14.5972    0.4843    1.1267 C   0  0  0  0  0  0  0  0  0  0  0  0
   15.3441    1.3378    1.5913 O   0  0  0  0  0  0  0  0  0  0  0  0
   13.2180    0.6374    1.0974 O   0  0  0  0  0  0  0  0  0  0  0  0
    5.3878   -2.8602    1.1538 C   0  0  0  0  0  0  0  0  0  0  0  0
   -0.5019    0.2353   -0.0135 C   0  0  0  0  0  0  0  0  0  0  0  0
   -0.7111    1.1475    1.1989 C   0  0  0  0  0  0  0  0  0  0  0  0
   -1.7595    2.2509    0.9404 C   0  0  0  0  0  0  0  0  0  0  0  0
   -2.0524    3.0927    2.2279 C   0  0  0  0  0  0  0  0  0  0  0  0
   -0.7897    3.7282    2.8159 C   0  0  0  0  0  0  0  0  0  0  0  0
   -3.0921    4.1911    1.9768 C   0  0  0  0  0  0  0  0  0  0  0  0
   -2.6113    2.2296    3.2320 O   0  0  0  0  0  0  0  0  0  0  0  0
   -2.9837    1.5977    0.5418 O   0  0  0  0  0  0  0  0  0  0  0  0
   -3.5794    2.1704   -0.6364 C   0  0  0  0  0  0  0  0  0  0  0  0
   -5.0722    1.7649   -0.6877 C   0  0  0  0  0  0  0  0  0  0  0  0
   -5.6043    2.1517   -2.0583 C   0  0  0  0  0  0  0  0  0  0  0  0
   -4.8708    1.3651   -3.1512 C   0  0  0  0  0  0  0  0  0  0  0  0
   -3.3783    1.0888   -2.8325 C   0  0  0  0  0  0  0  0  0  0  0  0
   -2.7995    1.8858   -1.7974 O   0  0  0  0  0  0  0  0  0  0  0  0
   -3.0763   -0.4013   -2.6063 C   0  0  0  0  0  0  0  0  0  0  0  0
   -3.5204   -1.1779   -3.7166 O   0  0  0  0  0  0  0  0  0  0  0  0
   -4.9983    2.1325   -4.3706 O   0  0  0  0  0  0  0  0  0  0  0  0
   -5.4582    3.5653   -2.2699 O   0  0  0  0  0  0  0  0  0  0  0  0
   -5.2121    0.3514   -0.4785 O   0  0  0  0  0  0  0  0  0  0  0  0
   -6.3690   -0.0121    0.2683 C   0  0  0  0  0  0  0  0  0  0  0  0
   -6.3296   -1.5377    0.5026 C   0  0  0  0  0  0  0  0  0  0  0  0
   -7.6020   -1.9884    1.2338 C   0  0  0  0  0  0  0  0  0  0  0  0
   -8.8660   -1.4734    0.5271 C   0  0  0  0  0  0  0  0  0  0  0  0
   -8.7463    0.0437    0.2947 C   0  0  0  0  0  0  0  0  0  0  0  0
   -7.5506    0.3482   -0.4441 O   0  0  0  0  0  0  0  0  0  0  0  0
   -9.9443    0.6032   -0.4767 C   0  0  0  0  0  0  0  0  0  0  0  0
  -11.1291    0.4913    0.3042 O   0  0  0  0  0  0  0  0  0  0  0  0
   -8.9976   -2.1608   -0.7313 O   0  0  0  0  0  0  0  0  0  0  0  0
   -7.6468   -3.4239    1.2803 O   0  0  0  0  0  0  0  0  0  0  0  0
   -6.2472   -2.2721   -0.7411 O   0  0  0  0  0  0  0  0  0  0  0  0
   -0.4317   -2.4824    0.7376 H   0  0  0  0  0  0  0  0  0  0  0  0
    0.1342   -1.5012    2.1047 H   0  0  0  0  0  0  0  0  0  0  0  0
    1.2590   -2.5327    1.2403 H   0  0  0  0  0  0  0  0  0  0  0  0
    1.8892    0.3454   -1.1496 H   0  0  0  0  0  0  0  0  0  0  0  0
    2.8258   -2.4041   -0.1652 H   0  0  0  0  0  0  0  0  0  0  0  0
    3.4147   -1.4693   -1.5157 H   0  0  0  0  0  0  0  0  0  0  0  0
    3.7879   -0.6835    1.4353 H   0  0  0  0  0  0  0  0  0  0  0  0
    4.3335    0.2648    0.0704 H   0  0  0  0  0  0  0  0  0  0  0  0
    6.4303   -0.1283   -0.7709 H   0  0  0  0  0  0  0  0  0  0  0  0
    8.0636   -1.8803   -1.4667 H   0  0  0  0  0  0  0  0  0  0  0  0
    7.9710   -2.6415    0.1474 H   0  0  0  0  0  0  0  0  0  0  0  0
   10.6196    0.7947    0.9799 H   0  0  0  0  0  0  0  0  0  0  0  0
   12.4417   -3.4216   -0.9088 H   0  0  0  0  0  0  0  0  0  0  0  0
   10.0340   -3.0428   -0.9077 H   0  0  0  0  0  0  0  0  0  0  0  0
   14.7879   -2.6334   -0.3542 H   0  0  0  0  0  0  0  0  0  0  0  0
   16.2209   -0.8635    0.6019 H   0  0  0  0  0  0  0  0  0  0  0  0
    5.0066   -2.6822    2.1650 H   0  0  0  0  0  0  0  0  0  0  0  0
    4.7273   -3.5779    0.6578 H   0  0  0  0  0  0  0  0  0  0  0  0
    6.3643   -3.3354    1.2649 H   0  0  0  0  0  0  0  0  0  0  0  0
   -0.3400    0.8534   -0.9055 H   0  0  0  0  0  0  0  0  0  0  0  0
   -1.4094   -0.3490   -0.2018 H   0  0  0  0  0  0  0  0  0  0  0  0
   -1.0305    0.5310    2.0476 H   0  0  0  0  0  0  0  0  0  0  0  0
    0.2477    1.6053    1.4675 H   0  0  0  0  0  0  0  0  0  0  0  0
   -1.3853    2.9096    0.1455 H   0  0  0  0  0  0  0  0  0  0  0  0
   -1.0367    4.3635    3.6747 H   0  0  0  0  0  0  0  0  0  0  0  0
   -0.0994    2.9717    3.2033 H   0  0  0  0  0  0  0  0  0  0  0  0
   -0.2670    4.3412    2.0747 H   0  0  0  0  0  0  0  0  0  0  0  0
   -3.2616    4.7814    2.8852 H   0  0  0  0  0  0  0  0  0  0  0  0
   -4.0682    3.7685    1.7172 H   0  0  0  0  0  0  0  0  0  0  0  0
   -2.7732    4.8721    1.1814 H   0  0  0  0  0  0  0  0  0  0  0  0
   -3.1918    1.6099    2.7493 H   0  0  0  0  0  0  0  0  0  0  0  0
   -3.5498    3.2614   -0.5383 H   0  0  0  0  0  0  0  0  0  0  0  0
   -5.5861    2.3128    0.1128 H   0  0  0  0  0  0  0  0  0  0  0  0
   -6.6755    1.9457   -2.1460 H   0  0  0  0  0  0  0  0  0  0  0  0
   -5.4028    0.4227   -3.3248 H   0  0  0  0  0  0  0  0  0  0  0  0
   -2.8114    1.3577   -3.7337 H   0  0  0  0  0  0  0  0  0  0  0  0
   -1.9959   -0.5471   -2.5050 H   0  0  0  0  0  0  0  0  0  0  0  0
   -3.5369   -0.7886   -1.6962 H   0  0  0  0  0  0  0  0  0  0  0  0
   -3.4011   -2.1109   -3.4613 H   0  0  0  0  0  0  0  0  0  0  0  0
   -4.6475    1.5639   -5.0825 H   0  0  0  0  0  0  0  0  0  0  0  0
   -5.4122    3.6543   -3.2476 H   0  0  0  0  0  0  0  0  0  0  0  0
   -6.3452    0.5076    1.2353 H   0  0  0  0  0  0  0  0  0  0  0  0
   -5.4352   -1.8202    1.0680 H   0  0  0  0  0  0  0  0  0  0  0  0
   -7.5856   -1.6177    2.2650 H   0  0  0  0  0  0  0  0  0  0  0  0
   -9.7571   -1.7151    1.1172 H   0  0  0  0  0  0  0  0  0  0  0  0
   -8.6969    0.5510    1.2678 H   0  0  0  0  0  0  0  0  0  0  0  0
   -9.7802    1.6618   -0.7070 H   0  0  0  0  0  0  0  0  0  0  0  0
  -10.0873    0.0841   -1.4305 H   0  0  0  0  0  0  0  0  0  0  0  0
  -11.8619    0.8041   -0.2558 H   0  0  0  0  0  0  0  0  0  0  0  0
   -9.1033   -3.1036   -0.4934 H   0  0  0  0  0  0  0  0  0  0  0  0
   -7.0927   -3.7271    0.5296 H   0  0  0  0  0  0  0  0  0  0  0  0
   -6.9676   -1.9155   -1.3056 H   0  0  0  0  0  0  0  0  0  0  0  0
  1  2  1  0
  2  3  2  3
  3  4  1  0
  4  5  1  0
  5  6  1  0
  6  7  2  3
  7  8  1  0
  8  9  1  0
  9 10  1  0
 10 11  2  0
 11 12  1  0
 12 13  2  0
 13 14  1  0
 14 15  2  0
 13 16  1  0
 16 17  2  0
 17 18  1  0
 18 19  2  0
 18 20  1  0
  6 21  1  0
  2 22  1  0
 22 23  1  0
 23 24  1  0
 24 25  1  0
 25 26  1  0
 25 27  1  0
 25 28  1  0
 24 29  1  0
 29 30  1  0
 30 31  1  0
 31 32  1  0
 32 33  1  0
 33 34  1  0
 34 35  1  0
 34 36  1  0
 36 37  1  0
 33 38  1  0
 32 39  1  0
 31 40  1  0
 40 41  1  0
 41 42  1  0
 42 43  1  0
 43 44  1  0
 44 45  1  0
 45 46  1  0
 45 47  1  0
 47 48  1  0
 44 49  1  0
 43 50  1  0
 42 51  1  0
 15 10  1  0
 20 12  1  0
 35 30  1  0
 46 41  1  0
  1 52  1  0
  1 53  1  0
  1 54  1  0
  3 55  1  0
  4 56  1  0
  4 57  1  0
  5 58  1  0
  5 59  1  0
  7 60  1  0
  8 61  1  0
  8 62  1  0
 11 63  1  0
 14 64  1  0
 15 65  1  0
 16 66  1  0
 17 67  1  0
 21 68  1  0
 21 69  1  0
 21 70  1  0
 22 71  1  0
 22 72  1  0
 23 73  1  0
 23 74  1  0
 24 75  1  0
 26 76  1  0
 26 77  1  0
 26 78  1  0
 27 79  1  0
 27 80  1  0
 27 81  1  0
 28 82  1  0
 30 83  1  0
 31 84  1  0
 32 85  1  0
 33 86  1  0
 34 87  1  0
 36 88  1  0
 36 89  1  0
 37 90  1  0
 38 91  1  0
 39 92  1  0
 41 93  1  0
 42 94  1  0
 43 95  1  0
 44 96  1  0
 45 97  1  0
 47 98  1  0
 47 99  1  0
 48100  1  0
 49101  1  0
 50102  1  0
 51103  1  0
M  END
>  <Name>  (53) 
Reoselin

>  <PubChem ID>  (53) 
6445962

>  <CDB ID>  (53) 
CDB0053

>  <Smiles>  (53) 
CC(=CCCC(=CCOC1=CC2=C(C=C1)C=CC(=O)O2)C)CCC(C(C)(C)O)OC3C(C(C(C(O3)CO)O)O)OC4C(C(C(C(O4)CO)O)O)O

>  <Chemical class>  (53) 
7-Oxygenated Coumarins

>  <Natural source>  (53) 
Ferula pseudooreoselinum

>  <Molecular Formula>  (53) 
C36H52O15

>  <InChI-Key>  (53) 
IRJOYYJBFNUUNS-UHFFFAOYSA-N

>  <Total Molweight>  (53) 
724.794

>  <cLogP>  (53) 
1.7489

>  <cLogS>  (53) 
-3.891

>  <H-Acceptors>  (53) 
15

>  <H-Donors>  (53) 
8

>  <Rotatable Bonds>  (53) 
16

>  <Polar Surface Area>  (53) 
234.29

$$$$
CDB0054
     RDKit          3D

 58 60  0  0  0  0  0  0  0  0999 V2000
   -2.7688   -0.6681   -2.4776 C   0  0  0  0  0  0  0  0  0  0  0  0
   -3.7893   -0.3799   -1.3999 C   0  0  0  0  0  0  0  0  0  0  0  0
   -3.5033   -0.2036   -0.0830 C   0  0  0  0  0  0  0  0  0  0  0  0
   -4.6200    0.0000    0.9803 C   0  0  0  0  0  0  0  0  0  0  0  0
   -6.0404   -0.2685    0.3766 C   0  0  0  0  0  0  0  0  0  0  0  0
   -6.1992    0.3303   -1.0113 C   0  0  0  0  0  0  0  0  0  0  0  0
   -5.1930   -0.2965   -1.9597 C   0  0  0  0  0  0  0  0  0  0  0  0
   -7.0905    0.2162    1.2173 O   0  0  0  0  0  0  0  0  0  0  0  0
   -4.4681   -0.9862    2.1660 C   0  0  0  0  0  0  0  0  0  0  0  0
   -4.5241    1.4356    1.5428 C   0  0  0  0  0  0  0  0  0  0  0  0
   -2.0598   -0.1989    0.4210 C   0  0  0  0  0  0  0  0  0  0  0  0
   -1.3017    1.0963    0.0786 C   0  0  0  0  0  0  0  0  0  0  0  0
    0.1517    1.0523    0.5207 C   0  0  0  0  0  0  0  0  0  0  0  0
    1.1354    0.9531   -0.3971 C   0  0  0  0  0  0  0  0  0  0  0  0
    2.6175    0.8733   -0.1714 C   0  0  0  0  0  0  0  0  0  0  0  0
    3.1019   -0.2246   -0.9480 O   0  0  0  0  0  0  0  0  0  0  0  0
    4.4471   -0.4680   -0.9138 C   0  0  0  0  0  0  0  0  0  0  0  0
    5.3979    0.2696   -0.2116 C   0  0  0  0  0  0  0  0  0  0  0  0
    6.7392   -0.1114   -0.2817 C   0  0  0  0  0  0  0  0  0  0  0  0
    7.1590   -1.2070   -1.0327 C   0  0  0  0  0  0  0  0  0  0  0  0
    6.2058   -1.9423   -1.7344 C   0  0  0  0  0  0  0  0  0  0  0  0
    4.8579   -1.5709   -1.6726 C   0  0  0  0  0  0  0  0  0  0  0  0
    8.5719   -1.5456   -1.0593 C   0  0  0  0  0  0  0  0  0  0  0  0
    9.4392   -0.8022   -0.3655 C   0  0  0  0  0  0  0  0  0  0  0  0
    9.0206    0.3613    0.4359 C   0  0  0  0  0  0  0  0  0  0  0  0
    9.8445    1.0204    1.0594 O   0  0  0  0  0  0  0  0  0  0  0  0
    7.6658    0.6642    0.4454 O   0  0  0  0  0  0  0  0  0  0  0  0
    0.3736    1.1573    2.0059 C   0  0  0  0  0  0  0  0  0  0  0  0
   -1.7568   -0.8329   -2.1035 H   0  0  0  0  0  0  0  0  0  0  0  0
   -2.7267    0.1659   -3.1861 H   0  0  0  0  0  0  0  0  0  0  0  0
   -3.0530   -1.5724   -3.0269 H   0  0  0  0  0  0  0  0  0  0  0  0
   -6.1970   -1.3528    0.2978 H   0  0  0  0  0  0  0  0  0  0  0  0
   -7.2184    0.1674   -1.3828 H   0  0  0  0  0  0  0  0  0  0  0  0
   -6.0697    1.4193   -0.9779 H   0  0  0  0  0  0  0  0  0  0  0  0
   -5.1893    0.2900   -2.8867 H   0  0  0  0  0  0  0  0  0  0  0  0
   -5.5207   -1.3098   -2.2248 H   0  0  0  0  0  0  0  0  0  0  0  0
   -7.1457    1.1804    1.1061 H   0  0  0  0  0  0  0  0  0  0  0  0
   -5.3444   -0.9537    2.8241 H   0  0  0  0  0  0  0  0  0  0  0  0
   -3.6049   -0.7553    2.7981 H   0  0  0  0  0  0  0  0  0  0  0  0
   -4.3586   -2.0172    1.8102 H   0  0  0  0  0  0  0  0  0  0  0  0
   -5.2930    1.6283    2.2989 H   0  0  0  0  0  0  0  0  0  0  0  0
   -4.6328    2.1865    0.7529 H   0  0  0  0  0  0  0  0  0  0  0  0
   -3.5618    1.6117    2.0360 H   0  0  0  0  0  0  0  0  0  0  0  0
   -2.0282   -0.3454    1.5033 H   0  0  0  0  0  0  0  0  0  0  0  0
   -1.5284   -1.0708    0.0186 H   0  0  0  0  0  0  0  0  0  0  0  0
   -1.7868    1.9597    0.5496 H   0  0  0  0  0  0  0  0  0  0  0  0
   -1.3570    1.2894   -0.9997 H   0  0  0  0  0  0  0  0  0  0  0  0
    0.8575    0.9063   -1.4499 H   0  0  0  0  0  0  0  0  0  0  0  0
    3.0694    1.8082   -0.5227 H   0  0  0  0  0  0  0  0  0  0  0  0
    2.8612    0.7085    0.8816 H   0  0  0  0  0  0  0  0  0  0  0  0
    5.1369    1.1325    0.3900 H   0  0  0  0  0  0  0  0  0  0  0  0
    6.4915   -2.8041   -2.3320 H   0  0  0  0  0  0  0  0  0  0  0  0
    4.1167   -2.1483   -2.2216 H   0  0  0  0  0  0  0  0  0  0  0  0
    8.9024   -2.3980   -1.6425 H   0  0  0  0  0  0  0  0  0  0  0  0
   10.5002   -1.0204   -0.3584 H   0  0  0  0  0  0  0  0  0  0  0  0
    0.0935    0.2226    2.5011 H   0  0  0  0  0  0  0  0  0  0  0  0
   -0.2363    1.9657    2.4235 H   0  0  0  0  0  0  0  0  0  0  0  0
    1.4095    1.3824    2.2703 H   0  0  0  0  0  0  0  0  0  0  0  0
  1  2  1  0
  2  3  2  0
  3  4  1  0
  4  5  1  0
  5  6  1  0
  6  7  1  0
  5  8  1  0
  4  9  1  0
  4 10  1  0
  3 11  1  0
 11 12  1  0
 12 13  1  0
 13 14  2  3
 14 15  1  0
 15 16  1  0
 16 17  1  0
 17 18  2  0
 18 19  1  0
 19 20  2  0
 20 21  1  0
 21 22  2  0
 20 23  1  0
 23 24  2  0
 24 25  1  0
 25 26  2  0
 25 27  1  0
 13 28  1  0
  7  2  1  0
 22 17  1  0
 27 19  1  0
  1 29  1  0
  1 30  1  0
  1 31  1  0
  5 32  1  0
  6 33  1  0
  6 34  1  0
  7 35  1  0
  7 36  1  0
  8 37  1  0
  9 38  1  0
  9 39  1  0
  9 40  1  0
 10 41  1  0
 10 42  1  0
 10 43  1  0
 11 44  1  0
 11 45  1  0
 12 46  1  0
 12 47  1  0
 14 48  1  0
 15 49  1  0
 15 50  1  0
 18 51  1  0
 21 52  1  0
 22 53  1  0
 23 54  1  0
 24 55  1  0
 28 56  1  0
 28 57  1  0
 28 58  1  0
M  END
>  <Name>  (54) 
Assafoetidin

>  <PubChem ID>  (54) 
131751454

>  <CDB ID>  (54) 
CDB0054

>  <Smiles>  (54) 
CC1=C(C(C(CC1)O)(C)C)CCC(=CCOC2=CC3=C(C=C2)C=CC(=O)O3)C

>  <Chemical class>  (54) 
7-Oxygenated Coumarins

>  <Natural source>  (54) 
Ferula assafoetida

>  <Molecular Formula>  (54) 
C24H30O4

>  <InChI-Key>  (54) 
FDKWXRYTMNZMOF-JOCHJYFZSA-N

>  <Total Molweight>  (54) 
382.498

>  <cLogP>  (54) 
5.434

>  <cLogS>  (54) 
-4.788

>  <H-Acceptors>  (54) 
4

>  <H-Donors>  (54) 
1

>  <Rotatable Bonds>  (54) 
6

>  <Polar Surface Area>  (54) 
55.76

$$$$
CDB0055
     RDKit          3D

 58 60  0  0  0  0  0  0  0  0999 V2000
   -2.3250    0.7225    2.6486 C   0  0  0  0  0  0  0  0  0  0  0  0
   -3.3183    1.0034    1.5523 C   0  0  0  0  0  0  0  0  0  0  0  0
   -4.4797    1.6295    1.8126 C   0  0  0  0  0  0  0  0  0  0  0  0
   -5.4875    2.0037    0.7684 C   0  0  0  0  0  0  0  0  0  0  0  0
   -5.1795    1.4688   -0.6380 C   0  0  0  0  0  0  0  0  0  0  0  0
   -3.6556    1.4459   -0.9540 C   0  0  0  0  0  0  0  0  0  0  0  0
   -2.9140    0.5804    0.1390 C   0  0  0  0  0  0  0  0  0  0  0  0
   -3.1261   -0.9568    0.0021 C   0  0  0  0  0  0  0  0  0  0  0  0
   -2.0107   -1.6986   -0.7562 C   0  0  0  0  0  0  0  0  0  0  0  0
   -0.6691   -1.7282   -0.0438 C   0  0  0  0  0  0  0  0  0  0  0  0
    0.3487   -0.9628   -0.4897 C   0  0  0  0  0  0  0  0  0  0  0  0
    1.7522   -0.8610    0.0330 C   0  0  0  0  0  0  0  0  0  0  0  0
    2.6290   -1.0384   -1.0812 O   0  0  0  0  0  0  0  0  0  0  0  0
    3.9718   -0.9453   -0.8401 C   0  0  0  0  0  0  0  0  0  0  0  0
    4.5693   -0.6784    0.3899 C   0  0  0  0  0  0  0  0  0  0  0  0
    5.9618   -0.6158    0.4683 C   0  0  0  0  0  0  0  0  0  0  0  0
    6.7753   -0.8113   -0.6456 C   0  0  0  0  0  0  0  0  0  0  0  0
    6.1748   -1.0775   -1.8744 C   0  0  0  0  0  0  0  0  0  0  0  0
    4.7799   -1.1432   -1.9666 C   0  0  0  0  0  0  0  0  0  0  0  0
    8.2178   -0.7314   -0.4896 C   0  0  0  0  0  0  0  0  0  0  0  0
    8.7355   -0.4732    0.7153 C   0  0  0  0  0  0  0  0  0  0  0  0
    7.8969   -0.2632    1.9086 C   0  0  0  0  0  0  0  0  0  0  0  0
    8.4068   -0.0290    2.9981 O   0  0  0  0  0  0  0  0  0  0  0  0
    6.5221   -0.3439    1.7336 O   0  0  0  0  0  0  0  0  0  0  0  0
   -0.5824   -2.6894    1.1118 C   0  0  0  0  0  0  0  0  0  0  0  0
   -3.0773    2.8878   -0.9516 C   0  0  0  0  0  0  0  0  0  0  0  0
   -3.4159    0.9015   -2.3786 C   0  0  0  0  0  0  0  0  0  0  0  0
   -5.9026    2.2678   -1.5789 O   0  0  0  0  0  0  0  0  0  0  0  0
   -2.6494    1.1325    3.6110 H   0  0  0  0  0  0  0  0  0  0  0  0
   -1.3573    1.1749    2.4085 H   0  0  0  0  0  0  0  0  0  0  0  0
   -2.1834   -0.3532    2.7810 H   0  0  0  0  0  0  0  0  0  0  0  0
   -4.7207    1.9300    2.8302 H   0  0  0  0  0  0  0  0  0  0  0  0
   -6.4771    1.6419    1.0742 H   0  0  0  0  0  0  0  0  0  0  0  0
   -5.5720    3.0978    0.7439 H   0  0  0  0  0  0  0  0  0  0  0  0
   -5.5896    0.4544   -0.7131 H   0  0  0  0  0  0  0  0  0  0  0  0
   -1.8443    0.8021    0.0384 H   0  0  0  0  0  0  0  0  0  0  0  0
   -3.2351   -1.4267    0.9873 H   0  0  0  0  0  0  0  0  0  0  0  0
   -4.0747   -1.1640   -0.5059 H   0  0  0  0  0  0  0  0  0  0  0  0
   -1.8965   -1.2790   -1.7606 H   0  0  0  0  0  0  0  0  0  0  0  0
   -2.3325   -2.7357   -0.9194 H   0  0  0  0  0  0  0  0  0  0  0  0
    0.1667   -0.3127   -1.3456 H   0  0  0  0  0  0  0  0  0  0  0  0
    1.9667   -1.6176    0.7915 H   0  0  0  0  0  0  0  0  0  0  0  0
    1.8854    0.1410    0.4578 H   0  0  0  0  0  0  0  0  0  0  0  0
    3.9935   -0.5163    1.2937 H   0  0  0  0  0  0  0  0  0  0  0  0
    6.7733   -1.2362   -2.7678 H   0  0  0  0  0  0  0  0  0  0  0  0
    4.3151   -1.3520   -2.9282 H   0  0  0  0  0  0  0  0  0  0  0  0
    8.8543   -0.8827   -1.3544 H   0  0  0  0  0  0  0  0  0  0  0  0
    9.8047   -0.4052    0.8746 H   0  0  0  0  0  0  0  0  0  0  0  0
   -1.3408   -2.4577    1.8650 H   0  0  0  0  0  0  0  0  0  0  0  0
   -0.7510   -3.7127    0.7603 H   0  0  0  0  0  0  0  0  0  0  0  0
    0.3830   -2.6736    1.6211 H   0  0  0  0  0  0  0  0  0  0  0  0
   -3.1821    3.3866    0.0161 H   0  0  0  0  0  0  0  0  0  0  0  0
   -3.5744    3.5178   -1.6979 H   0  0  0  0  0  0  0  0  0  0  0  0
   -2.0081    2.8765   -1.1944 H   0  0  0  0  0  0  0  0  0  0  0  0
   -3.8208    1.5766   -3.1412 H   0  0  0  0  0  0  0  0  0  0  0  0
   -3.8906   -0.0725   -2.5309 H   0  0  0  0  0  0  0  0  0  0  0  0
   -2.3445    0.8011   -2.5840 H   0  0  0  0  0  0  0  0  0  0  0  0
   -5.8959    1.8004   -2.4308 H   0  0  0  0  0  0  0  0  0  0  0  0
  1  2  1  0
  2  3  2  0
  3  4  1  0
  4  5  1  0
  5  6  1  0
  6  7  1  0
  7  8  1  0
  8  9  1  0
  9 10  1  0
 10 11  2  3
 11 12  1  0
 12 13  1  0
 13 14  1  0
 14 15  2  0
 15 16  1  0
 16 17  2  0
 17 18  1  0
 18 19  2  0
 17 20  1  0
 20 21  2  0
 21 22  1  0
 22 23  2  0
 22 24  1  0
 10 25  1  0
  6 26  1  0
  6 27  1  0
  5 28  1  0
  7  2  1  0
 19 14  1  0
 24 16  1  0
  1 29  1  0
  1 30  1  0
  1 31  1  0
  3 32  1  0
  4 33  1  0
  4 34  1  0
  5 35  1  0
  7 36  1  0
  8 37  1  0
  8 38  1  0
  9 39  1  0
  9 40  1  0
 11 41  1  0
 12 42  1  0
 12 43  1  0
 15 44  1  0
 18 45  1  0
 19 46  1  0
 20 47  1  0
 21 48  1  0
 25 49  1  0
 25 50  1  0
 25 51  1  0
 26 52  1  0
 26 53  1  0
 26 54  1  0
 27 55  1  0
 27 56  1  0
 27 57  1  0
 28 58  1  0
M  END
>  <Name>  (55) 
Kopetdaghin (Famesiferol D)

>  <PubChem ID>  (55) 
44575344

>  <CDB ID>  (55) 
CDB0055

>  <Smiles>  (55) 
CC1=CCC(C(C1CCC(=CCOC2=CC3=C(C=C2)C=CC(=O)O3)C)(C)C)O

>  <Chemical class>  (55) 
7-Oxygenated Coumarins

>  <Natural source>  (55) 
Ferula kopetdaghensis

>  <Molecular Formula>  (55) 
C24H30O4

>  <InChI-Key>  (55) 
UFACQRQRVMGYSY-UHFFFAOYSA-N

>  <Total Molweight>  (55) 
382.498

>  <cLogP>  (55) 
5.2631

>  <cLogS>  (55) 
-4.824

>  <H-Acceptors>  (55) 
4

>  <H-Donors>  (55) 
1

>  <Rotatable Bonds>  (55) 
6

>  <Polar Surface Area>  (55) 
55.76

$$$$
CDB0056
     RDKit          3D

 58 60  0  0  0  0  0  0  0  0999 V2000
    0.2220   -1.6862   -2.6351 C   0  0  0  0  0  0  0  0  0  0  0  0
   -0.0423   -1.1007   -1.2690 C   0  0  0  0  0  0  0  0  0  0  0  0
    0.9278   -0.7953   -0.3814 C   0  0  0  0  0  0  0  0  0  0  0  0
    2.4169   -0.9359   -0.5268 C   0  0  0  0  0  0  0  0  0  0  0  0
    2.9961    0.3135   -0.1429 O   0  0  0  0  0  0  0  0  0  0  0  0
    4.3607    0.4005   -0.1576 C   0  0  0  0  0  0  0  0  0  0  0  0
    5.2455   -0.6183   -0.5046 C   0  0  0  0  0  0  0  0  0  0  0  0
    6.6181   -0.3665   -0.4676 C   0  0  0  0  0  0  0  0  0  0  0  0
    7.1334    0.8726   -0.0937 C   0  0  0  0  0  0  0  0  0  0  0  0
    6.2460    1.8895    0.2532 C   0  0  0  0  0  0  0  0  0  0  0  0
    4.8676    1.6501    0.2200 C   0  0  0  0  0  0  0  0  0  0  0  0
    8.5739    1.0631   -0.0778 C   0  0  0  0  0  0  0  0  0  0  0  0
    9.3748    0.0498   -0.4215 C   0  0  0  0  0  0  0  0  0  0  0  0
    8.8547   -1.2696   -0.8213 C   0  0  0  0  0  0  0  0  0  0  0  0
    9.6197   -2.1757   -1.1311 O   0  0  0  0  0  0  0  0  0  0  0  0
    7.4754   -1.4268   -0.8277 O   0  0  0  0  0  0  0  0  0  0  0  0
   -1.5309   -0.8822   -1.0069 C   0  0  0  0  0  0  0  0  0  0  0  0
   -1.9464   -0.4230    0.3981 C   0  0  0  0  0  0  0  0  0  0  0  0
   -3.4753   -0.4548    0.6941 C   0  0  0  0  0  0  0  0  0  0  0  0
   -3.7778   -0.3268    2.1890 C   0  0  0  0  0  0  0  0  0  0  0  0
   -2.9361    0.1378    3.1287 C   0  0  0  0  0  0  0  0  0  0  0  0
   -5.1886   -0.7216    2.5708 C   0  0  0  0  0  0  0  0  0  0  0  0
   -6.1959   -0.4211    1.4575 C   0  0  0  0  0  0  0  0  0  0  0  0
   -5.7747    0.7911    0.6251 C   0  0  0  0  0  0  0  0  0  0  0  0
   -4.4011    0.5478   -0.1179 C   0  0  0  0  0  0  0  0  0  0  0  0
   -4.7639   -0.0839   -1.4872 C   0  0  0  0  0  0  0  0  0  0  0  0
   -3.7035    1.8966   -0.3845 C   0  0  0  0  0  0  0  0  0  0  0  0
   -5.7472    1.9203    1.5018 O   0  0  0  0  0  0  0  0  0  0  0  0
   -0.0936   -0.9818   -3.4119 H   0  0  0  0  0  0  0  0  0  0  0  0
    1.2699   -1.9314   -2.8157 H   0  0  0  0  0  0  0  0  0  0  0  0
   -0.3452   -2.6149   -2.7616 H   0  0  0  0  0  0  0  0  0  0  0  0
    0.6503   -0.3768    0.5839 H   0  0  0  0  0  0  0  0  0  0  0  0
    2.7529   -1.7278    0.1529 H   0  0  0  0  0  0  0  0  0  0  0  0
    2.7127   -1.1719   -1.5515 H   0  0  0  0  0  0  0  0  0  0  0  0
    4.9090   -1.6042   -0.8038 H   0  0  0  0  0  0  0  0  0  0  0  0
    6.6068    2.8707    0.5507 H   0  0  0  0  0  0  0  0  0  0  0  0
    4.1780    2.4471    0.4912 H   0  0  0  0  0  0  0  0  0  0  0  0
    8.9786    2.0261    0.2132 H   0  0  0  0  0  0  0  0  0  0  0  0
   10.4534    0.1499   -0.4229 H   0  0  0  0  0  0  0  0  0  0  0  0
   -2.0533   -1.8217   -1.2273 H   0  0  0  0  0  0  0  0  0  0  0  0
   -1.8607   -0.1403   -1.7394 H   0  0  0  0  0  0  0  0  0  0  0  0
   -1.4616   -1.1003    1.1152 H   0  0  0  0  0  0  0  0  0  0  0  0
   -1.5422    0.5787    0.5882 H   0  0  0  0  0  0  0  0  0  0  0  0
   -3.7892   -1.4779    0.4343 H   0  0  0  0  0  0  0  0  0  0  0  0
   -3.2456    0.2179    4.1672 H   0  0  0  0  0  0  0  0  0  0  0  0
   -1.9284    0.4687    2.9057 H   0  0  0  0  0  0  0  0  0  0  0  0
   -5.4969   -0.1895    3.4799 H   0  0  0  0  0  0  0  0  0  0  0  0
   -5.2207   -1.7927    2.8031 H   0  0  0  0  0  0  0  0  0  0  0  0
   -6.3064   -1.2993    0.8101 H   0  0  0  0  0  0  0  0  0  0  0  0
   -7.1765   -0.2429    1.9158 H   0  0  0  0  0  0  0  0  0  0  0  0
   -6.5669    0.9999   -0.1044 H   0  0  0  0  0  0  0  0  0  0  0  0
   -5.4540    0.5609   -2.0447 H   0  0  0  0  0  0  0  0  0  0  0  0
   -3.8963   -0.2316   -2.1305 H   0  0  0  0  0  0  0  0  0  0  0  0
   -5.2523   -1.0564   -1.3623 H   0  0  0  0  0  0  0  0  0  0  0  0
   -2.8391    1.7898   -1.0463 H   0  0  0  0  0  0  0  0  0  0  0  0
   -4.3857    2.6002   -0.8756 H   0  0  0  0  0  0  0  0  0  0  0  0
   -3.3538    2.3582    0.5451 H   0  0  0  0  0  0  0  0  0  0  0  0
   -5.6920    2.7228    0.9575 H   0  0  0  0  0  0  0  0  0  0  0  0
  1  2  1  0
  2  3  2  3
  3  4  1  0
  4  5  1  0
  5  6  1  0
  6  7  2  0
  7  8  1  0
  8  9  2  0
  9 10  1  0
 10 11  2  0
  9 12  1  0
 12 13  2  0
 13 14  1  0
 14 15  2  0
 14 16  1  0
  2 17  1  0
 17 18  1  0
 18 19  1  0
 19 20  1  0
 20 21  2  0
 20 22  1  0
 22 23  1  0
 23 24  1  0
 24 25  1  0
 25 26  1  0
 25 27  1  0
 24 28  1  0
 11  6  1  0
 16  8  1  0
 25 19  1  0
  1 29  1  0
  1 30  1  0
  1 31  1  0
  3 32  1  0
  4 33  1  0
  4 34  1  0
  7 35  1  0
 10 36  1  0
 11 37  1  0
 12 38  1  0
 13 39  1  0
 17 40  1  0
 17 41  1  0
 18 42  1  0
 18 43  1  0
 19 44  1  0
 21 45  1  0
 21 46  1  0
 22 47  1  0
 22 48  1  0
 23 49  1  0
 23 50  1  0
 24 51  1  0
 26 52  1  0
 26 53  1  0
 26 54  1  0
 27 55  1  0
 27 56  1  0
 27 57  1  0
 28 58  1  0
M  END
>  <Name>  (56) 
Farnesiferol B (Kopeodin)

>  <PubChem ID>  (56) 
131750875

>  <CDB ID>  (56) 
CDB0056

>  <Smiles>  (56) 
CC(=CCOC1=CC2=C(C=C1)C=CC(=O)O2)CCC3C(=C)CCC(C3(C)C)O

>  <Chemical class>  (56) 
7-Oxygenated Coumarins

>  <Natural source>  (56) 
Ferula assafoetida

>  <Molecular Formula>  (56) 
C24H30O4

>  <InChI-Key>  (56) 
XXKXCRGLMFAXTK-UHFFFAOYSA-N

>  <Total Molweight>  (56) 
382.498

>  <cLogP>  (56) 
5.3414

>  <cLogS>  (56) 
-4.991

>  <H-Acceptors>  (56) 
4

>  <H-Donors>  (56) 
1

>  <Rotatable Bonds>  (56) 
6

>  <Polar Surface Area>  (56) 
55.76

$$$$
CDB0057
     RDKit          3D

 58 61  0  0  0  0  0  0  0  0999 V2000
   -0.0474   -1.2417   -2.5428 C   0  0  0  0  0  0  0  0  0  0  0  0
   -0.1853    0.1947   -2.1161 C   0  0  0  0  0  0  0  0  0  0  0  0
    0.8122    0.9414   -1.5983 C   0  0  0  0  0  0  0  0  0  0  0  0
    2.2182    0.5315   -1.2704 C   0  0  0  0  0  0  0  0  0  0  0  0
    2.4725    0.9539    0.0712 O   0  0  0  0  0  0  0  0  0  0  0  0
    3.7099    0.6846    0.5868 C   0  0  0  0  0  0  0  0  0  0  0  0
    4.7712    0.0901   -0.0924 C   0  0  0  0  0  0  0  0  0  0  0  0
    5.9772   -0.1151    0.5803 C   0  0  0  0  0  0  0  0  0  0  0  0
    6.1546    0.2565    1.9112 C   0  0  0  0  0  0  0  0  0  0  0  0
    5.0919    0.8523    2.5873 C   0  0  0  0  0  0  0  0  0  0  0  0
    3.8777    1.0641    1.9243 C   0  0  0  0  0  0  0  0  0  0  0  0
    7.4376    0.0113    2.5480 C   0  0  0  0  0  0  0  0  0  0  0  0
    8.4202   -0.5631    1.8474 C   0  0  0  0  0  0  0  0  0  0  0  0
    8.2581   -0.9638    0.4386 C   0  0  0  0  0  0  0  0  0  0  0  0
    9.1823   -1.4870   -0.1731 O   0  0  0  0  0  0  0  0  0  0  0  0
    7.0233   -0.7199   -0.1469 O   0  0  0  0  0  0  0  0  0  0  0  0
   -1.5563    0.8102   -2.3402 C   0  0  0  0  0  0  0  0  0  0  0  0
   -2.3239    1.1358   -1.0479 C   0  0  0  0  0  0  0  0  0  0  0  0
   -2.8001   -0.0983   -0.2663 C   0  0  0  0  0  0  0  0  0  0  0  0
   -4.0956   -0.8390   -0.7485 C   0  0  0  0  0  0  0  0  0  0  0  0
   -4.9134   -0.8975    0.5707 C   0  0  0  0  0  0  0  0  0  0  0  0
   -5.4998    0.4487    0.9913 C   0  0  0  0  0  0  0  0  0  0  0  0
   -4.2518    1.2328    1.3896 C   0  0  0  0  0  0  0  0  0  0  0  0
   -3.1457    0.1836    1.2197 C   0  0  0  0  0  0  0  0  0  0  0  0
   -3.8612   -1.0327    1.5594 O   0  0  0  0  0  0  0  0  0  0  0  0
   -1.9494    0.3883    2.1276 C   0  0  0  0  0  0  0  0  0  0  0  0
   -4.8848   -0.2004   -1.8964 C   0  0  0  0  0  0  0  0  0  0  0  0
   -3.7339   -2.2792   -1.1722 C   0  0  0  0  0  0  0  0  0  0  0  0
   -0.6273   -1.8941   -1.8841 H   0  0  0  0  0  0  0  0  0  0  0  0
    0.9852   -1.5973   -2.5388 H   0  0  0  0  0  0  0  0  0  0  0  0
   -0.4165   -1.3678   -3.5664 H   0  0  0  0  0  0  0  0  0  0  0  0
    0.6025    1.9836   -1.3580 H   0  0  0  0  0  0  0  0  0  0  0  0
    2.8968    1.0472   -1.9598 H   0  0  0  0  0  0  0  0  0  0  0  0
    2.3577   -0.5502   -1.3444 H   0  0  0  0  0  0  0  0  0  0  0  0
    4.6983   -0.2199   -1.1283 H   0  0  0  0  0  0  0  0  0  0  0  0
    5.1888    1.1567    3.6262 H   0  0  0  0  0  0  0  0  0  0  0  0
    3.0499    1.5285    2.4564 H   0  0  0  0  0  0  0  0  0  0  0  0
    7.5791    0.2980    3.5842 H   0  0  0  0  0  0  0  0  0  0  0  0
    9.3909   -0.7635    2.2841 H   0  0  0  0  0  0  0  0  0  0  0  0
   -1.4238    1.7419   -2.9069 H   0  0  0  0  0  0  0  0  0  0  0  0
   -2.1564    0.1620   -2.9868 H   0  0  0  0  0  0  0  0  0  0  0  0
   -1.6786    1.7459   -0.4044 H   0  0  0  0  0  0  0  0  0  0  0  0
   -3.1688    1.7835   -1.3024 H   0  0  0  0  0  0  0  0  0  0  0  0
   -1.9767   -0.8244   -0.2524 H   0  0  0  0  0  0  0  0  0  0  0  0
   -5.6264   -1.7244    0.6306 H   0  0  0  0  0  0  0  0  0  0  0  0
   -6.1339    0.3172    1.8767 H   0  0  0  0  0  0  0  0  0  0  0  0
   -6.1034    0.9437    0.2281 H   0  0  0  0  0  0  0  0  0  0  0  0
   -4.1007    2.1306    0.7851 H   0  0  0  0  0  0  0  0  0  0  0  0
   -4.3459    1.5504    2.4348 H   0  0  0  0  0  0  0  0  0  0  0  0
   -1.2382   -0.4391    2.0289 H   0  0  0  0  0  0  0  0  0  0  0  0
   -2.2579    0.4021    3.1788 H   0  0  0  0  0  0  0  0  0  0  0  0
   -1.4282    1.3243    1.9077 H   0  0  0  0  0  0  0  0  0  0  0  0
   -4.3444   -0.2722   -2.8451 H   0  0  0  0  0  0  0  0  0  0  0  0
   -5.1048    0.8565   -1.7258 H   0  0  0  0  0  0  0  0  0  0  0  0
   -5.8444   -0.7126   -2.0340 H   0  0  0  0  0  0  0  0  0  0  0  0
   -4.6351   -2.8557   -1.4103 H   0  0  0  0  0  0  0  0  0  0  0  0
   -3.2014   -2.8170   -0.3798 H   0  0  0  0  0  0  0  0  0  0  0  0
   -3.0949   -2.2763   -2.0617 H   0  0  0  0  0  0  0  0  0  0  0  0
  1  2  1  0
  2  3  2  3
  3  4  1  0
  4  5  1  0
  5  6  1  0
  6  7  2  0
  7  8  1  0
  8  9  2  0
  9 10  1  0
 10 11  2  0
  9 12  1  0
 12 13  2  0
 13 14  1  0
 14 15  2  0
 14 16  1  0
  2 17  1  0
 17 18  1  0
 18 19  1  0
 19 20  1  0
 20 21  1  0
 21 22  1  0
 22 23  1  0
 23 24  1  0
 24 25  1  0
 24 26  1  0
 20 27  1  0
 20 28  1  0
 11  6  1  0
 16  8  1  0
 24 19  1  0
 25 21  1  0
  1 29  1  0
  1 30  1  0
  1 31  1  0
  3 32  1  0
  4 33  1  0
  4 34  1  0
  7 35  1  0
 10 36  1  0
 11 37  1  0
 12 38  1  0
 13 39  1  0
 17 40  1  0
 17 41  1  0
 18 42  1  0
 18 43  1  0
 19 44  1  0
 21 45  1  0
 22 46  1  0
 22 47  1  0
 23 48  1  0
 23 49  1  0
 26 50  1  0
 26 51  1  0
 26 52  1  0
 27 53  1  0
 27 54  1  0
 27 55  1  0
 28 56  1  0
 28 57  1  0
 28 58  1  0
M  END
>  <Name>  (57) 
Farnesiferol C

>  <PubChem ID>  (57) 
15559239

>  <CDB ID>  (57) 
CDB0057

>  <Smiles>  (57) 
CC(=CCOC1=CC2=C(C=C1)C=CC(=O)O2)CCC3C(C4CCC3(O4)C)(C)C

>  <Chemical class>  (57) 
7-Oxygenated Coumarins

>  <Natural source>  (57) 
Ferula assafoetida

>  <Molecular Formula>  (57) 
C24H30O4

>  <InChI-Key>  (57) 
OCHZHKVSLMBEJP-UHFFFAOYSA-N

>  <Total Molweight>  (57) 
382.498

>  <cLogP>  (57) 
5.0986

>  <cLogS>  (57) 
-5.119

>  <H-Acceptors>  (57) 
4

>  <H-Donors>  (57) 
0

>  <Rotatable Bonds>  (57) 
6

>  <Polar Surface Area>  (57) 
44.76

$$$$
CDB0058
     RDKit          3D

 61 63  0  0  0  0  0  0  0  0999 V2000
   -0.2348   -0.9962   -1.4932 C   0  0  0  0  0  0  0  0  0  0  0  0
   -0.0320   -0.9491   -0.0045 C   0  0  0  0  0  0  0  0  0  0  0  0
    1.1218   -0.5878    0.5960 C   0  0  0  0  0  0  0  0  0  0  0  0
    2.3976   -0.0992   -0.0248 C   0  0  0  0  0  0  0  0  0  0  0  0
    3.4221   -1.0277    0.3276 O   0  0  0  0  0  0  0  0  0  0  0  0
    4.6893   -0.7608   -0.1109 C   0  0  0  0  0  0  0  0  0  0  0  0
    5.6391   -1.7222    0.2382 C   0  0  0  0  0  0  0  0  0  0  0  0
    6.9652   -1.5551   -0.1537 C   0  0  0  0  0  0  0  0  0  0  0  0
    7.3740   -0.4467   -0.8894 C   0  0  0  0  0  0  0  0  0  0  0  0
    6.4250    0.5147   -1.2375 C   0  0  0  0  0  0  0  0  0  0  0  0
    5.0865    0.3582   -0.8491 C   0  0  0  0  0  0  0  0  0  0  0  0
    8.7718   -0.3282   -1.2688 C   0  0  0  0  0  0  0  0  0  0  0  0
    9.6336   -1.2827   -0.9049 C   0  0  0  0  0  0  0  0  0  0  0  0
    9.2237   -2.4650   -0.1260 C   0  0  0  0  0  0  0  0  0  0  0  0
   10.0441   -3.3194    0.1889 O   0  0  0  0  0  0  0  0  0  0  0  0
    7.8835   -2.5544    0.2237 O   0  0  0  0  0  0  0  0  0  0  0  0
   -1.2062   -1.4091    0.8451 C   0  0  0  0  0  0  0  0  0  0  0  0
   -1.9983   -0.2669    1.5022 C   0  0  0  0  0  0  0  0  0  0  0  0
   -2.8948    0.6374    0.5966 C   0  0  0  0  0  0  0  0  0  0  0  0
   -4.1774   -0.0838   -0.0363 C   0  0  0  0  0  0  0  0  0  0  0  0
   -5.2872    0.9638   -0.3590 C   0  0  0  0  0  0  0  0  0  0  0  0
   -5.7582    1.7749    0.8458 C   0  0  0  0  0  0  0  0  0  0  0  0
   -4.6759    2.0199    1.8825 C   0  0  0  0  0  0  0  0  0  0  0  0
   -3.2501    2.0038    1.3247 C   0  0  0  0  0  0  0  0  0  0  0  0
   -3.0070    3.2049    0.3930 C   0  0  0  0  0  0  0  0  0  0  0  0
   -2.3760    2.2635    2.4336 O   0  0  0  0  0  0  0  0  0  0  0  0
   -6.4295    0.3751   -0.9837 O   0  0  0  0  0  0  0  0  0  0  0  0
   -4.7518   -1.1949    0.8744 C   0  0  0  0  0  0  0  0  0  0  0  0
   -3.8070   -0.7547   -1.3838 C   0  0  0  0  0  0  0  0  0  0  0  0
    0.6942   -0.9012   -2.0594 H   0  0  0  0  0  0  0  0  0  0  0  0
   -0.9017   -0.1923   -1.8146 H   0  0  0  0  0  0  0  0  0  0  0  0
   -0.6752   -1.9552   -1.7861 H   0  0  0  0  0  0  0  0  0  0  0  0
    1.1677   -0.6255    1.6846 H   0  0  0  0  0  0  0  0  0  0  0  0
    2.6229    0.8867    0.4001 H   0  0  0  0  0  0  0  0  0  0  0  0
    2.3238   -0.0120   -1.1117 H   0  0  0  0  0  0  0  0  0  0  0  0
    5.3452   -2.5966    0.8120 H   0  0  0  0  0  0  0  0  0  0  0  0
    6.7100    1.3935   -1.8111 H   0  0  0  0  0  0  0  0  0  0  0  0
    4.3818    1.1310   -1.1396 H   0  0  0  0  0  0  0  0  0  0  0  0
    9.0959    0.5332   -1.8419 H   0  0  0  0  0  0  0  0  0  0  0  0
   10.6836   -1.2341   -1.1664 H   0  0  0  0  0  0  0  0  0  0  0  0
   -1.8507   -2.0911    0.2884 H   0  0  0  0  0  0  0  0  0  0  0  0
   -0.8044   -2.0324    1.6574 H   0  0  0  0  0  0  0  0  0  0  0  0
   -2.6064   -0.6783    2.3166 H   0  0  0  0  0  0  0  0  0  0  0  0
   -1.2429    0.3543    1.9977 H   0  0  0  0  0  0  0  0  0  0  0  0
   -2.2530    0.9248   -0.2467 H   0  0  0  0  0  0  0  0  0  0  0  0
   -4.8926    1.6535   -1.1119 H   0  0  0  0  0  0  0  0  0  0  0  0
   -6.6183    1.2978    1.3326 H   0  0  0  0  0  0  0  0  0  0  0  0
   -6.1431    2.7366    0.4816 H   0  0  0  0  0  0  0  0  0  0  0  0
   -4.7559    1.2615    2.6723 H   0  0  0  0  0  0  0  0  0  0  0  0
   -4.8743    2.9664    2.4032 H   0  0  0  0  0  0  0  0  0  0  0  0
   -1.9483    3.2625    0.1122 H   0  0  0  0  0  0  0  0  0  0  0  0
   -3.2331    4.1457    0.9093 H   0  0  0  0  0  0  0  0  0  0  0  0
   -3.5949    3.1773   -0.5250 H   0  0  0  0  0  0  0  0  0  0  0  0
   -2.6176    1.6718    3.1664 H   0  0  0  0  0  0  0  0  0  0  0  0
   -6.9333   -0.1185   -0.3154 H   0  0  0  0  0  0  0  0  0  0  0  0
   -5.0365   -0.8158    1.8592 H   0  0  0  0  0  0  0  0  0  0  0  0
   -4.0367   -2.0088    1.0266 H   0  0  0  0  0  0  0  0  0  0  0  0
   -5.6410   -1.6587    0.4336 H   0  0  0  0  0  0  0  0  0  0  0  0
   -4.6841   -1.2015   -1.8661 H   0  0  0  0  0  0  0  0  0  0  0  0
   -3.3868   -0.0249   -2.0846 H   0  0  0  0  0  0  0  0  0  0  0  0
   -3.0852   -1.5620   -1.2658 H   0  0  0  0  0  0  0  0  0  0  0  0
  1  2  1  0
  2  3  2  3
  3  4  1  0
  4  5  1  0
  5  6  1  0
  6  7  2  0
  7  8  1  0
  8  9  2  0
  9 10  1  0
 10 11  2  0
  9 12  1  0
 12 13  2  0
 13 14  1  0
 14 15  2  0
 14 16  1  0
  2 17  1  0
 17 18  1  0
 18 19  1  0
 19 20  1  0
 20 21  1  0
 21 22  1  0
 22 23  1  0
 23 24  1  0
 24 25  1  0
 24 26  1  0
 21 27  1  0
 20 28  1  0
 20 29  1  0
 11  6  1  0
 16  8  1  0
 24 19  1  0
  1 30  1  0
  1 31  1  0
  1 32  1  0
  3 33  1  0
  4 34  1  0
  4 35  1  0
  7 36  1  0
 10 37  1  0
 11 38  1  0
 12 39  1  0
 13 40  1  0
 17 41  1  0
 17 42  1  0
 18 43  1  0
 18 44  1  0
 19 45  1  0
 21 46  1  0
 22 47  1  0
 22 48  1  0
 23 49  1  0
 23 50  1  0
 25 51  1  0
 25 52  1  0
 25 53  1  0
 26 54  1  0
 27 55  1  0
 28 56  1  0
 28 57  1  0
 28 58  1  0
 29 59  1  0
 29 60  1  0
 29 61  1  0
M  END
>  <Name>  (58) 
Kopeolin

>  <PubChem ID>  (58) 
38363845

>  <CDB ID>  (58) 
CDB0058

>  <Smiles>  (58) 
CC(=CCOC1=CC2=C(C=C1)C=CC(=O)O2)CCC3C(C(CCC3(C)O)O)(C)C

>  <Chemical class>  (58) 
7-Oxygenated Coumarins

>  <Natural source>  (58) 
Ferula kopetdaghensis

>  <Molecular Formula>  (58) 
C24H32O5

>  <InChI-Key>  (58) 
HBYBDKQFQLMBGU-UHFFFAOYSA-N

>  <Total Molweight>  (58) 
400.513

>  <cLogP>  (58) 
4.5442

>  <cLogS>  (58) 
-4.638

>  <H-Acceptors>  (58) 
5

>  <H-Donors>  (58) 
2

>  <Rotatable Bonds>  (58) 
6

>  <Polar Surface Area>  (58) 
75.99

$$$$
CDB0059
     RDKit          3D

 82 85  0  0  0  0  0  0  0  0999 V2000
    1.9969    0.9564    4.1885 C   0  0  0  0  0  0  0  0  0  0  0  0
    2.1542    0.6501    2.7188 C   0  0  0  0  0  0  0  0  0  0  0  0
    3.3297    0.7520    2.0633 C   0  0  0  0  0  0  0  0  0  0  0  0
    4.6737    1.1004    2.6430 C   0  0  0  0  0  0  0  0  0  0  0  0
    5.6970    0.3637    1.9661 O   0  0  0  0  0  0  0  0  0  0  0  0
    6.3255    0.9367    0.8957 C   0  0  0  0  0  0  0  0  0  0  0  0
    7.4712    0.2636    0.4679 C   0  0  0  0  0  0  0  0  0  0  0  0
    8.1891    0.7482   -0.6231 C   0  0  0  0  0  0  0  0  0  0  0  0
    7.7898    1.8909   -1.3094 C   0  0  0  0  0  0  0  0  0  0  0  0
    6.6392    2.5578   -0.8887 C   0  0  0  0  0  0  0  0  0  0  0  0
    5.9078    2.0802    0.2085 C   0  0  0  0  0  0  0  0  0  0  0  0
    8.5799    2.3469   -2.4405 C   0  0  0  0  0  0  0  0  0  0  0  0
    9.6706    1.6620   -2.7976 C   0  0  0  0  0  0  0  0  0  0  0  0
   10.1125    0.4491   -2.0862 C   0  0  0  0  0  0  0  0  0  0  0  0
   11.1187   -0.1524   -2.4438 O   0  0  0  0  0  0  0  0  0  0  0  0
    9.3403    0.0345   -1.0099 O   0  0  0  0  0  0  0  0  0  0  0  0
    0.8416    0.2451    2.0532 C   0  0  0  0  0  0  0  0  0  0  0  0
    0.9312   -0.3941    0.6611 C   0  0  0  0  0  0  0  0  0  0  0  0
   -0.3178   -1.1890    0.1502 C   0  0  0  0  0  0  0  0  0  0  0  0
   -1.6572   -0.3439   -0.0247 C   0  0  0  0  0  0  0  0  0  0  0  0
   -2.7734   -1.2189   -0.7012 C   0  0  0  0  0  0  0  0  0  0  0  0
   -2.3074   -1.8790   -1.9940 C   0  0  0  0  0  0  0  0  0  0  0  0
   -1.1131   -2.7728   -1.7284 C   0  0  0  0  0  0  0  0  0  0  0  0
    0.0778   -1.9993   -1.1476 C   0  0  0  0  0  0  0  0  0  0  0  0
    1.2029   -3.0229   -0.8981 C   0  0  0  0  0  0  0  0  0  0  0  0
    0.5284   -1.1055   -2.1686 O   0  0  0  0  0  0  0  0  0  0  0  0
   -3.9214   -0.4076   -0.9944 O   0  0  0  0  0  0  0  0  0  0  0  0
   -5.1577   -1.1288   -0.9698 C   0  0  0  0  0  0  0  0  0  0  0  0
   -6.1931   -0.4066   -1.8504 C   0  0  0  0  0  0  0  0  0  0  0  0
   -6.3235    1.0488   -1.3871 C   0  0  0  0  0  0  0  0  0  0  0  0
   -6.2187    1.1697    0.1471 C   0  0  0  0  0  0  0  0  0  0  0  0
   -6.4885   -0.1830    0.8263 C   0  0  0  0  0  0  0  0  0  0  0  0
   -5.6056   -1.2402    0.3863 O   0  0  0  0  0  0  0  0  0  0  0  0
   -6.3544   -0.0896    2.3512 C   0  0  0  0  0  0  0  0  0  0  0  0
   -6.6038   -1.3727    2.9334 O   0  0  0  0  0  0  0  0  0  0  0  0
   -7.1112    2.1815    0.6219 O   0  0  0  0  0  0  0  0  0  0  0  0
   -7.6001    1.5676   -1.8213 O   0  0  0  0  0  0  0  0  0  0  0  0
   -5.8540   -0.4510   -3.2418 O   0  0  0  0  0  0  0  0  0  0  0  0
   -1.4291    0.9590   -0.8230 C   0  0  0  0  0  0  0  0  0  0  0  0
   -2.2417    0.0640    1.3549 C   0  0  0  0  0  0  0  0  0  0  0  0
    2.8815    1.4207    4.6314 H   0  0  0  0  0  0  0  0  0  0  0  0
    1.1664    1.6547    4.3397 H   0  0  0  0  0  0  0  0  0  0  0  0
    1.7810    0.0377    4.7433 H   0  0  0  0  0  0  0  0  0  0  0  0
    3.3565    0.5571    0.9943 H   0  0  0  0  0  0  0  0  0  0  0  0
    4.8583    2.1798    2.6270 H   0  0  0  0  0  0  0  0  0  0  0  0
    4.7342    0.7855    3.6893 H   0  0  0  0  0  0  0  0  0  0  0  0
    7.8033   -0.6325    0.9845 H   0  0  0  0  0  0  0  0  0  0  0  0
    6.2939    3.4497   -1.4066 H   0  0  0  0  0  0  0  0  0  0  0  0
    5.0088    2.6199    0.4894 H   0  0  0  0  0  0  0  0  0  0  0  0
    8.2736    3.2368   -2.9789 H   0  0  0  0  0  0  0  0  0  0  0  0
   10.2880    1.9666   -3.6339 H   0  0  0  0  0  0  0  0  0  0  0  0
    0.2486    1.1610    1.9917 H   0  0  0  0  0  0  0  0  0  0  0  0
    0.3274   -0.4571    2.7207 H   0  0  0  0  0  0  0  0  0  0  0  0
    1.2110    0.3743   -0.0686 H   0  0  0  0  0  0  0  0  0  0  0  0
    1.7696   -1.0955    0.7053 H   0  0  0  0  0  0  0  0  0  0  0  0
   -0.5378   -1.9479    0.9164 H   0  0  0  0  0  0  0  0  0  0  0  0
   -3.0604   -2.0045    0.0131 H   0  0  0  0  0  0  0  0  0  0  0  0
   -3.1126   -2.4824   -2.4283 H   0  0  0  0  0  0  0  0  0  0  0  0
   -2.0781   -1.1241   -2.7553 H   0  0  0  0  0  0  0  0  0  0  0  0
   -1.4079   -3.5806   -1.0462 H   0  0  0  0  0  0  0  0  0  0  0  0
   -0.8286   -3.2416   -2.6794 H   0  0  0  0  0  0  0  0  0  0  0  0
    2.1723   -2.5451   -0.7273 H   0  0  0  0  0  0  0  0  0  0  0  0
    0.9715   -3.6743   -0.0493 H   0  0  0  0  0  0  0  0  0  0  0  0
    1.3518   -3.6555   -1.7819 H   0  0  0  0  0  0  0  0  0  0  0  0
    1.4204   -0.7952   -1.9387 H   0  0  0  0  0  0  0  0  0  0  0  0
   -5.0101   -2.1416   -1.3592 H   0  0  0  0  0  0  0  0  0  0  0  0
   -7.1601   -0.9172   -1.7542 H   0  0  0  0  0  0  0  0  0  0  0  0
   -5.5617    1.6870   -1.8517 H   0  0  0  0  0  0  0  0  0  0  0  0
   -5.2009    1.4892    0.3980 H   0  0  0  0  0  0  0  0  0  0  0  0
   -7.5124   -0.5143    0.6084 H   0  0  0  0  0  0  0  0  0  0  0  0
   -7.0649    0.6226    2.7800 H   0  0  0  0  0  0  0  0  0  0  0  0
   -5.3406    0.2042    2.6405 H   0  0  0  0  0  0  0  0  0  0  0  0
   -6.0895   -2.0029    2.3928 H   0  0  0  0  0  0  0  0  0  0  0  0
   -7.7879    2.2814   -0.0817 H   0  0  0  0  0  0  0  0  0  0  0  0
   -7.4688    1.8936   -2.7312 H   0  0  0  0  0  0  0  0  0  0  0  0
   -6.6481   -0.1887   -3.7383 H   0  0  0  0  0  0  0  0  0  0  0  0
   -1.0812    0.7685   -1.8407 H   0  0  0  0  0  0  0  0  0  0  0  0
   -0.6941    1.6074   -0.3358 H   0  0  0  0  0  0  0  0  0  0  0  0
   -2.3514    1.5461   -0.9020 H   0  0  0  0  0  0  0  0  0  0  0  0
   -2.2369   -0.7793    2.0538 H   0  0  0  0  0  0  0  0  0  0  0  0
   -1.7126    0.8980    1.8141 H   0  0  0  0  0  0  0  0  0  0  0  0
   -3.2777    0.4041    1.2678 H   0  0  0  0  0  0  0  0  0  0  0  0
  1  2  1  0
  2  3  2  3
  3  4  1  0
  4  5  1  0
  5  6  1  0
  6  7  2  0
  7  8  1  0
  8  9  2  0
  9 10  1  0
 10 11  2  0
  9 12  1  0
 12 13  2  0
 13 14  1  0
 14 15  2  0
 14 16  1  0
  2 17  1  0
 17 18  1  0
 18 19  1  0
 19 20  1  0
 20 21  1  0
 21 22  1  0
 22 23  1  0
 23 24  1  0
 24 25  1  0
 24 26  1  0
 21 27  1  0
 27 28  1  0
 28 29  1  0
 29 30  1  0
 30 31  1  0
 31 32  1  0
 32 33  1  0
 32 34  1  0
 34 35  1  0
 31 36  1  0
 30 37  1  0
 29 38  1  0
 20 39  1  0
 20 40  1  0
 11  6  1  0
 16  8  1  0
 24 19  1  0
 33 28  1  0
  1 41  1  0
  1 42  1  0
  1 43  1  0
  3 44  1  0
  4 45  1  0
  4 46  1  0
  7 47  1  0
 10 48  1  0
 11 49  1  0
 12 50  1  0
 13 51  1  0
 17 52  1  0
 17 53  1  0
 18 54  1  0
 18 55  1  0
 19 56  1  0
 21 57  1  0
 22 58  1  0
 22 59  1  0
 23 60  1  0
 23 61  1  0
 25 62  1  0
 25 63  1  0
 25 64  1  0
 26 65  1  0
 28 66  1  0
 29 67  1  0
 30 68  1  0
 31 69  1  0
 32 70  1  0
 34 71  1  0
 34 72  1  0
 35 73  1  0
 36 74  1  0
 37 75  1  0
 38 76  1  0
 39 77  1  0
 39 78  1  0
 39 79  1  0
 40 80  1  0
 40 81  1  0
 40 82  1  0
M  END
>  <Name>  (59) 
Kopeoside

>  <PubChem ID>  (59) 
101608681

>  <CDB ID>  (59) 
CDB0059

>  <Smiles>  (59) 
CC(=CCOC1=CC2=C(C=C1)C=CC(=O)O2)CCC3C(C(CCC3(C)O)OC4C(C(C(C(O4)CO)O)O)O)(C)C

>  <Chemical class>  (59) 
7-Oxygenated Coumarins

>  <Natural source>  (59) 
Ferula kopetdaghensis

>  <Molecular Formula>  (59) 
C30H42O10

>  <InChI-Key>  (59) 
KAUFDVDLVRIRJS-UHFFFAOYSA-N

>  <Total Molweight>  (59) 
562.653

>  <cLogP>  (59) 
2.7071

>  <cLogS>  (59) 
-4.338

>  <H-Acceptors>  (59) 
10

>  <H-Donors>  (59) 
5

>  <Rotatable Bonds>  (59) 
9

>  <Polar Surface Area>  (59) 
155.14

$$$$
CDB0060
     RDKit          3D

 59 61  0  0  0  0  0  0  0  0999 V2000
    1.3426   -2.5396   -1.3926 C   0  0  0  0  0  0  0  0  0  0  0  0
    0.9014   -1.1925   -0.8796 C   0  0  0  0  0  0  0  0  0  0  0  0
    1.7747   -0.3802   -0.2493 C   0  0  0  0  0  0  0  0  0  0  0  0
    1.5075    0.9683    0.3588 C   0  0  0  0  0  0  0  0  0  0  0  0
    2.2272    1.9745   -0.3543 O   0  0  0  0  0  0  0  0  0  0  0  0
    3.4767    2.3306    0.0682 C   0  0  0  0  0  0  0  0  0  0  0  0
    4.2305    1.6981    1.0538 C   0  0  0  0  0  0  0  0  0  0  0  0
    5.5016    2.1895    1.3581 C   0  0  0  0  0  0  0  0  0  0  0  0
    6.0449    3.2931    0.7045 C   0  0  0  0  0  0  0  0  0  0  0  0
    5.2924    3.9206   -0.2856 C   0  0  0  0  0  0  0  0  0  0  0  0
    4.0173    3.4370   -0.6000 C   0  0  0  0  0  0  0  0  0  0  0  0
    7.3745    3.7490    1.0731 C   0  0  0  0  0  0  0  0  0  0  0  0
    8.0498    3.1024    2.0281 C   0  0  0  0  0  0  0  0  0  0  0  0
    7.4985    1.9318    2.7331 C   0  0  0  0  0  0  0  0  0  0  0  0
    8.1474    1.3634    3.6036 O   0  0  0  0  0  0  0  0  0  0  0  0
    6.2266    1.5162    2.3633 O   0  0  0  0  0  0  0  0  0  0  0  0
   -0.5478   -0.8435   -1.1521 C   0  0  0  0  0  0  0  0  0  0  0  0
   -1.4741   -1.3664   -0.0515 C   0  0  0  0  0  0  0  0  0  0  0  0
   -2.9138   -0.7592   -0.0083 C   0  0  0  0  0  0  0  0  0  0  0  0
   -3.8487   -1.0972   -1.2364 C   0  0  0  0  0  0  0  0  0  0  0  0
   -5.3371   -0.8129   -0.9262 C   0  0  0  0  0  0  0  0  0  0  0  0
   -6.1188   -0.3875   -1.7799 O   0  0  0  0  0  0  0  0  0  0  0  0
   -5.8647   -1.1713    0.4357 C   0  0  0  0  0  0  0  0  0  0  0  0
   -4.9870   -0.5346    1.4863 C   0  0  0  0  0  0  0  0  0  0  0  0
   -3.5435   -1.0405    1.4058 C   0  0  0  0  0  0  0  0  0  0  0  0
   -3.4566   -2.4992    1.8786 C   0  0  0  0  0  0  0  0  0  0  0  0
   -2.7950   -0.2927    2.3816 O   0  0  0  0  0  0  0  0  0  0  0  0
   -3.4956   -0.1892   -2.4430 C   0  0  0  0  0  0  0  0  0  0  0  0
   -3.7630   -2.5582   -1.7037 C   0  0  0  0  0  0  0  0  0  0  0  0
    2.3942   -2.7459   -1.1669 H   0  0  0  0  0  0  0  0  0  0  0  0
    0.7446   -3.3351   -0.9367 H   0  0  0  0  0  0  0  0  0  0  0  0
    1.2208   -2.5906   -2.4795 H   0  0  0  0  0  0  0  0  0  0  0  0
    2.8012   -0.7230   -0.1311 H   0  0  0  0  0  0  0  0  0  0  0  0
    1.7286    0.9708    1.4318 H   0  0  0  0  0  0  0  0  0  0  0  0
    0.4496    1.2369    0.2880 H   0  0  0  0  0  0  0  0  0  0  0  0
    3.8748    0.8276    1.5919 H   0  0  0  0  0  0  0  0  0  0  0  0
    5.6802    4.7823   -0.8227 H   0  0  0  0  0  0  0  0  0  0  0  0
    3.4350    3.9287   -1.3769 H   0  0  0  0  0  0  0  0  0  0  0  0
    7.8001    4.6083    0.5669 H   0  0  0  0  0  0  0  0  0  0  0  0
    9.0430    3.4093    2.3325 H   0  0  0  0  0  0  0  0  0  0  0  0
   -0.8191   -1.2858   -2.1155 H   0  0  0  0  0  0  0  0  0  0  0  0
   -0.6664    0.2388   -1.2691 H   0  0  0  0  0  0  0  0  0  0  0  0
   -1.5294   -2.4593   -0.1213 H   0  0  0  0  0  0  0  0  0  0  0  0
   -0.9869   -1.1553    0.9097 H   0  0  0  0  0  0  0  0  0  0  0  0
   -2.7668    0.3321   -0.0337 H   0  0  0  0  0  0  0  0  0  0  0  0
   -6.8846   -0.7816    0.5300 H   0  0  0  0  0  0  0  0  0  0  0  0
   -5.9198   -2.2593    0.5272 H   0  0  0  0  0  0  0  0  0  0  0  0
   -5.4009   -0.7219    2.4852 H   0  0  0  0  0  0  0  0  0  0  0  0
   -4.9994    0.5579    1.3681 H   0  0  0  0  0  0  0  0  0  0  0  0
   -3.9518   -3.2009    1.2072 H   0  0  0  0  0  0  0  0  0  0  0  0
   -2.4182   -2.8207    2.0118 H   0  0  0  0  0  0  0  0  0  0  0  0
   -3.9186   -2.6061    2.8680 H   0  0  0  0  0  0  0  0  0  0  0  0
   -2.8809    0.6558    2.1833 H   0  0  0  0  0  0  0  0  0  0  0  0
   -3.5613    0.8705   -2.1699 H   0  0  0  0  0  0  0  0  0  0  0  0
   -4.1848   -0.3471   -3.2819 H   0  0  0  0  0  0  0  0  0  0  0  0
   -2.4997   -0.3741   -2.8424 H   0  0  0  0  0  0  0  0  0  0  0  0
   -2.7663   -2.8100   -2.0790 H   0  0  0  0  0  0  0  0  0  0  0  0
   -4.0145   -3.2627   -0.9087 H   0  0  0  0  0  0  0  0  0  0  0  0
   -4.4703   -2.7493   -2.5203 H   0  0  0  0  0  0  0  0  0  0  0  0
  1  2  1  0
  2  3  2  3
  3  4  1  0
  4  5  1  0
  5  6  1  0
  6  7  2  0
  7  8  1  0
  8  9  2  0
  9 10  1  0
 10 11  2  0
  9 12  1  0
 12 13  2  0
 13 14  1  0
 14 15  2  0
 14 16  1  0
  2 17  1  0
 17 18  1  0
 18 19  1  0
 19 20  1  0
 20 21  1  0
 21 22  2  0
 21 23  1  0
 23 24  1  0
 24 25  1  0
 25 26  1  0
 25 27  1  0
 20 28  1  0
 20 29  1  0
 11  6  1  0
 16  8  1  0
 25 19  1  0
  1 30  1  0
  1 31  1  0
  1 32  1  0
  3 33  1  0
  4 34  1  0
  4 35  1  0
  7 36  1  0
 10 37  1  0
 11 38  1  0
 12 39  1  0
 13 40  1  0
 17 41  1  0
 17 42  1  0
 18 43  1  0
 18 44  1  0
 19 45  1  0
 23 46  1  0
 23 47  1  0
 24 48  1  0
 24 49  1  0
 26 50  1  0
 26 51  1  0
 26 52  1  0
 27 53  1  0
 28 54  1  0
 28 55  1  0
 28 56  1  0
 29 57  1  0
 29 58  1  0
 29 59  1  0
M  END
>  <Name>  (60) 
Kopeolone

>  <PubChem ID>  (60) 
102587506

>  <CDB ID>  (60) 
CDB0060

>  <Smiles>  (60) 
CC(=CCOC1=CC2=C(C=C1)C=CC(=O)O2)CCC3C(C(=O)CCC3(C)O)(C)C

>  <Chemical class>  (60) 
7-Oxygenated Coumarins

>  <Natural source>  (60) 
Ferula kopetdaghensis

>  <Molecular Formula>  (60) 
C24H30O5

>  <InChI-Key>  (60) 
JSAUTOOLCZCTFD-UHFFFAOYSA-N

>  <Total Molweight>  (60) 
398.497

>  <cLogP>  (60) 
4.6879

>  <cLogS>  (60) 
-4.689

>  <H-Acceptors>  (60) 
5

>  <H-Donors>  (60) 
1

>  <Rotatable Bonds>  (60) 
6

>  <Polar Surface Area>  (60) 
72.83

$$$$
CDB0061
     RDKit          3D

 64 66  0  0  0  0  0  0  0  0999 V2000
   -3.9588    2.4783   -0.5314 C   0  0  0  0  0  0  0  0  0  0  0  0
   -4.2201    1.1688   -1.3166 C   0  0  0  0  0  0  0  0  0  0  0  0
   -5.7457    0.8201   -1.4104 C   0  0  0  0  0  0  0  0  0  0  0  0
   -6.2809   -0.1147   -0.3261 C   0  0  0  0  0  0  0  0  0  0  0  0
   -5.4560   -0.0482    0.9426 C   0  0  0  0  0  0  0  0  0  0  0  0
   -3.9982   -0.4963    0.7058 C   0  0  0  0  0  0  0  0  0  0  0  0
   -3.4292   -0.0597   -0.6985 C   0  0  0  0  0  0  0  0  0  0  0  0
   -1.8840    0.1809   -0.7109 C   0  0  0  0  0  0  0  0  0  0  0  0
   -1.0190   -1.0323   -0.3362 C   0  0  0  0  0  0  0  0  0  0  0  0
    0.5028   -0.8772   -0.6040 C   0  0  0  0  0  0  0  0  0  0  0  0
    1.2000   -2.1686   -0.1564 C   0  0  0  0  0  0  0  0  0  0  0  0
    1.0796    0.3814    0.0845 C   0  0  0  0  0  0  0  0  0  0  0  0
    2.6009    0.5355   -0.0165 C   0  0  0  0  0  0  0  0  0  0  0  0
    3.2178   -0.2749    0.9854 O   0  0  0  0  0  0  0  0  0  0  0  0
    4.5842   -0.2825    1.0289 C   0  0  0  0  0  0  0  0  0  0  0  0
    5.4351    0.4671    0.2199 C   0  0  0  0  0  0  0  0  0  0  0  0
    6.8151    0.3468    0.3917 C   0  0  0  0  0  0  0  0  0  0  0  0
    7.3702   -0.5005    1.3482 C   0  0  0  0  0  0  0  0  0  0  0  0
    6.5164   -1.2482    2.1567 C   0  0  0  0  0  0  0  0  0  0  0  0
    5.1309   -1.1360    1.9949 C   0  0  0  0  0  0  0  0  0  0  0  0
    8.8162   -0.5763    1.4707 C   0  0  0  0  0  0  0  0  0  0  0  0
    9.5838    0.1665    0.6675 C   0  0  0  0  0  0  0  0  0  0  0  0
    9.0212    1.0716   -0.3502 C   0  0  0  0  0  0  0  0  0  0  0  0
    9.7568    1.7396   -1.0677 O   0  0  0  0  0  0  0  0  0  0  0  0
    7.6376    1.1253   -0.4488 O   0  0  0  0  0  0  0  0  0  0  0  0
    0.7177   -0.7769   -2.0175 O   0  0  0  0  0  0  0  0  0  0  0  0
   -3.9399   -2.0288    0.8763 C   0  0  0  0  0  0  0  0  0  0  0  0
   -3.2048    0.0826    1.7459 O   0  0  0  0  0  0  0  0  0  0  0  0
   -6.5531    1.9980   -1.4024 O   0  0  0  0  0  0  0  0  0  0  0  0
   -3.7509    1.4476   -2.7722 C   0  0  0  0  0  0  0  0  0  0  0  0
   -2.8984    2.7510   -0.5477 H   0  0  0  0  0  0  0  0  0  0  0  0
   -4.4933    3.3262   -0.9746 H   0  0  0  0  0  0  0  0  0  0  0  0
   -4.2586    2.4167    0.5154 H   0  0  0  0  0  0  0  0  0  0  0  0
   -5.9529    0.3247   -2.3683 H   0  0  0  0  0  0  0  0  0  0  0  0
   -7.3268    0.1194   -0.0938 H   0  0  0  0  0  0  0  0  0  0  0  0
   -6.2682   -1.1449   -0.7026 H   0  0  0  0  0  0  0  0  0  0  0  0
   -5.9245   -0.6750    1.7129 H   0  0  0  0  0  0  0  0  0  0  0  0
   -5.4980    0.9618    1.3646 H   0  0  0  0  0  0  0  0  0  0  0  0
   -3.6171   -0.8943   -1.3912 H   0  0  0  0  0  0  0  0  0  0  0  0
   -1.5894    0.4929   -1.7148 H   0  0  0  0  0  0  0  0  0  0  0  0
   -1.6363    1.0096   -0.0397 H   0  0  0  0  0  0  0  0  0  0  0  0
   -1.3861   -1.8951   -0.9067 H   0  0  0  0  0  0  0  0  0  0  0  0
   -1.1485   -1.2478    0.7295 H   0  0  0  0  0  0  0  0  0  0  0  0
    0.7224   -3.0447   -0.6114 H   0  0  0  0  0  0  0  0  0  0  0  0
    2.2429   -2.2002   -0.4891 H   0  0  0  0  0  0  0  0  0  0  0  0
    1.1674   -2.2888    0.9312 H   0  0  0  0  0  0  0  0  0  0  0  0
    0.6446    1.2691   -0.3908 H   0  0  0  0  0  0  0  0  0  0  0  0
    0.7852    0.3852    1.1414 H   0  0  0  0  0  0  0  0  0  0  0  0
    2.8507    1.5858    0.1778 H   0  0  0  0  0  0  0  0  0  0  0  0
    2.9494    0.2571   -1.0177 H   0  0  0  0  0  0  0  0  0  0  0  0
    5.0647    1.1440   -0.5411 H   0  0  0  0  0  0  0  0  0  0  0  0
    6.9089   -1.9210    2.9147 H   0  0  0  0  0  0  0  0  0  0  0  0
    4.4674   -1.7219    2.6275 H   0  0  0  0  0  0  0  0  0  0  0  0
    9.2519   -1.2359    2.2130 H   0  0  0  0  0  0  0  0  0  0  0  0
   10.6650    0.1395    0.7259 H   0  0  0  0  0  0  0  0  0  0  0  0
    0.3386    0.0607   -2.3304 H   0  0  0  0  0  0  0  0  0  0  0  0
   -4.3401   -2.3259    1.8533 H   0  0  0  0  0  0  0  0  0  0  0  0
   -4.5160   -2.5454    0.1021 H   0  0  0  0  0  0  0  0  0  0  0  0
   -2.9213   -2.4178    0.8566 H   0  0  0  0  0  0  0  0  0  0  0  0
   -3.5977   -0.1680    2.6002 H   0  0  0  0  0  0  0  0  0  0  0  0
   -6.3254    2.5220   -2.1889 H   0  0  0  0  0  0  0  0  0  0  0  0
   -3.7544    0.5296   -3.3703 H   0  0  0  0  0  0  0  0  0  0  0  0
   -2.7432    1.8731   -2.8109 H   0  0  0  0  0  0  0  0  0  0  0  0
   -4.4084    2.1692   -3.2706 H   0  0  0  0  0  0  0  0  0  0  0  0
  1  2  1  0
  2  3  1  0
  3  4  1  0
  4  5  1  0
  5  6  1  0
  6  7  1  0
  7  8  1  0
  8  9  1  0
  9 10  1  0
 10 11  1  0
 10 12  1  0
 12 13  1  0
 13 14  1  0
 14 15  1  0
 15 16  2  0
 16 17  1  0
 17 18  2  0
 18 19  1  0
 19 20  2  0
 18 21  1  0
 21 22  2  0
 22 23  1  0
 23 24  2  0
 23 25  1  0
 10 26  1  0
  6 27  1  0
  6 28  1  0
  3 29  1  0
  2 30  1  0
  7  2  1  0
 20 15  1  0
 25 17  1  0
  1 31  1  0
  1 32  1  0
  1 33  1  0
  3 34  1  0
  4 35  1  0
  4 36  1  0
  5 37  1  0
  5 38  1  0
  7 39  1  0
  8 40  1  0
  8 41  1  0
  9 42  1  0
  9 43  1  0
 11 44  1  0
 11 45  1  0
 11 46  1  0
 12 47  1  0
 12 48  1  0
 13 49  1  0
 13 50  1  0
 16 51  1  0
 19 52  1  0
 20 53  1  0
 21 54  1  0
 22 55  1  0
 26 56  1  0
 27 57  1  0
 27 58  1  0
 27 59  1  0
 28 60  1  0
 29 61  1  0
 30 62  1  0
 30 63  1  0
 30 64  1  0
M  END
>  <Name>  (61) 
Feropolol

>  <PubChem ID>  (61) 
5207725

>  <CDB ID>  (61) 
CDB0061

>  <Smiles>  (61) 
CC1(C(CCC(C1CCC(C)(CCOC2=CC3=C(C=C2)C=CC(=O)O3)O)(C)O)O)C

>  <Chemical class>  (61) 
7-Oxygenated Coumarins

>  <Natural source>  (61) 
Ferula polyantha

>  <Molecular Formula>  (61) 
C24H34O6

>  <InChI-Key>  (61) 
SKOQTSGTXDUTPI-UHFFFAOYSA-N

>  <Total Molweight>  (61) 
418.528

>  <cLogP>  (61) 
3.5488

>  <cLogS>  (61) 
-4.452

>  <H-Acceptors>  (61) 
6

>  <H-Donors>  (61) 
3

>  <Rotatable Bonds>  (61) 
7

>  <Polar Surface Area>  (61) 
96.22

$$$$
CDB0062
     RDKit          3D

 69 71  0  0  0  0  0  0  0  0999 V2000
   -5.5803    3.6839   -1.4117 C   0  0  0  0  0  0  0  0  0  0  0  0
   -5.9075    2.2859   -0.9850 C   0  0  0  0  0  0  0  0  0  0  0  0
   -7.0416    1.8603   -0.8229 O   0  0  0  0  0  0  0  0  0  0  0  0
   -4.7591    1.5774   -0.8044 O   0  0  0  0  0  0  0  0  0  0  0  0
   -4.9062    0.1916   -0.4056 C   0  0  0  0  0  0  0  0  0  0  0  0
   -5.0852    0.2010    1.1206 C   0  0  0  0  0  0  0  0  0  0  0  0
   -4.6222   -1.0819    1.7824 C   0  0  0  0  0  0  0  0  0  0  0  0
   -3.1153   -1.3308    1.5611 C   0  0  0  0  0  0  0  0  0  0  0  0
   -2.5757   -0.6996    0.2234 C   0  0  0  0  0  0  0  0  0  0  0  0
   -3.6691   -0.6410   -0.9135 C   0  0  0  0  0  0  0  0  0  0  0  0
   -4.1401   -2.0504   -1.3408 C   0  0  0  0  0  0  0  0  0  0  0  0
   -3.1069    0.0196   -2.2009 C   0  0  0  0  0  0  0  0  0  0  0  0
   -1.2109   -1.2883   -0.2448 C   0  0  0  0  0  0  0  0  0  0  0  0
   -0.0436   -1.0091    0.7226 C   0  0  0  0  0  0  0  0  0  0  0  0
    1.3338   -1.5109    0.2292 C   0  0  0  0  0  0  0  0  0  0  0  0
    1.7889   -0.7747   -1.0358 C   0  0  0  0  0  0  0  0  0  0  0  0
    2.3904   -1.4570    1.3603 C   0  0  0  0  0  0  0  0  0  0  0  0
    2.6373   -0.0954    2.0124 C   0  0  0  0  0  0  0  0  0  0  0  0
    3.1355    0.8712    1.0922 O   0  0  0  0  0  0  0  0  0  0  0  0
    4.4784    0.9378    0.8520 C   0  0  0  0  0  0  0  0  0  0  0  0
    4.8531    1.9444   -0.0401 C   0  0  0  0  0  0  0  0  0  0  0  0
    6.1958    2.1098   -0.3715 C   0  0  0  0  0  0  0  0  0  0  0  0
    7.1849    1.2923    0.1657 C   0  0  0  0  0  0  0  0  0  0  0  0
    6.8113    0.2853    1.0554 C   0  0  0  0  0  0  0  0  0  0  0  0
    5.4622    0.1084    1.3964 C   0  0  0  0  0  0  0  0  0  0  0  0
    8.5689    1.5142   -0.2175 C   0  0  0  0  0  0  0  0  0  0  0  0
    8.8626    2.4953   -1.0763 C   0  0  0  0  0  0  0  0  0  0  0  0
    7.8315    3.3727   -1.6592 C   0  0  0  0  0  0  0  0  0  0  0  0
    8.1397    4.2611   -2.4452 O   0  0  0  0  0  0  0  0  0  0  0  0
    6.5178    3.1403   -1.2761 O   0  0  0  0  0  0  0  0  0  0  0  0
    1.1913   -2.8996   -0.1166 O   0  0  0  0  0  0  0  0  0  0  0  0
   -2.8448   -2.8322    1.7414 C   0  0  0  0  0  0  0  0  0  0  0  0
   -2.4257   -0.6861    2.6495 O   0  0  0  0  0  0  0  0  0  0  0  0
   -6.5080    4.2410   -1.5703 H   0  0  0  0  0  0  0  0  0  0  0  0
   -5.0019    4.1837   -0.6307 H   0  0  0  0  0  0  0  0  0  0  0  0
   -5.0222    3.6635   -2.3512 H   0  0  0  0  0  0  0  0  0  0  0  0
   -5.8083   -0.2198   -0.8778 H   0  0  0  0  0  0  0  0  0  0  0  0
   -4.5535    1.0550    1.5608 H   0  0  0  0  0  0  0  0  0  0  0  0
   -6.1433    0.3709    1.3556 H   0  0  0  0  0  0  0  0  0  0  0  0
   -4.8380   -1.0193    2.8569 H   0  0  0  0  0  0  0  0  0  0  0  0
   -5.2258   -1.9116    1.3986 H   0  0  0  0  0  0  0  0  0  0  0  0
   -2.3498    0.3558    0.4463 H   0  0  0  0  0  0  0  0  0  0  0  0
   -3.2967   -2.6862   -1.6291 H   0  0  0  0  0  0  0  0  0  0  0  0
   -4.8061   -1.9876   -2.2103 H   0  0  0  0  0  0  0  0  0  0  0  0
   -4.7018   -2.5694   -0.5634 H   0  0  0  0  0  0  0  0  0  0  0  0
   -2.5793    0.9533   -1.9772 H   0  0  0  0  0  0  0  0  0  0  0  0
   -2.4111   -0.6404   -2.7303 H   0  0  0  0  0  0  0  0  0  0  0  0
   -3.9127    0.2476   -2.9091 H   0  0  0  0  0  0  0  0  0  0  0  0
   -1.3055   -2.3637   -0.4268 H   0  0  0  0  0  0  0  0  0  0  0  0
   -0.9390   -0.8384   -1.2019 H   0  0  0  0  0  0  0  0  0  0  0  0
    0.0023    0.0698    0.9131 H   0  0  0  0  0  0  0  0  0  0  0  0
   -0.2506   -1.4949    1.6805 H   0  0  0  0  0  0  0  0  0  0  0  0
    2.8258   -1.0298   -1.2831 H   0  0  0  0  0  0  0  0  0  0  0  0
    1.1947   -1.0753   -1.9059 H   0  0  0  0  0  0  0  0  0  0  0  0
    1.7142    0.3113   -0.9317 H   0  0  0  0  0  0  0  0  0  0  0  0
    2.0920   -2.1622    2.1481 H   0  0  0  0  0  0  0  0  0  0  0  0
    3.3341   -1.8553    0.9665 H   0  0  0  0  0  0  0  0  0  0  0  0
    1.6959    0.3011    2.4070 H   0  0  0  0  0  0  0  0  0  0  0  0
    3.2875   -0.1879    2.8902 H   0  0  0  0  0  0  0  0  0  0  0  0
    4.1008    2.5969   -0.4744 H   0  0  0  0  0  0  0  0  0  0  0  0
    7.5580   -0.3729    1.4936 H   0  0  0  0  0  0  0  0  0  0  0  0
    5.2195   -0.6913    2.0884 H   0  0  0  0  0  0  0  0  0  0  0  0
    9.3442    0.8809    0.1991 H   0  0  0  0  0  0  0  0  0  0  0  0
    9.8803    2.6956   -1.3885 H   0  0  0  0  0  0  0  0  0  0  0  0
    2.0297   -3.1973   -0.5099 H   0  0  0  0  0  0  0  0  0  0  0  0
   -1.7777   -3.0580    1.8180 H   0  0  0  0  0  0  0  0  0  0  0  0
   -3.2651   -3.4341    0.9326 H   0  0  0  0  0  0  0  0  0  0  0  0
   -3.2810   -3.1863    2.6839 H   0  0  0  0  0  0  0  0  0  0  0  0
   -2.6509    0.2596    2.6352 H   0  0  0  0  0  0  0  0  0  0  0  0
  1  2  1  0
  2  3  2  0
  2  4  1  0
  4  5  1  0
  5  6  1  0
  6  7  1  0
  7  8  1  0
  8  9  1  0
  9 10  1  0
 10 11  1  0
 10 12  1  0
  9 13  1  0
 13 14  1  0
 14 15  1  0
 15 16  1  0
 15 17  1  0
 17 18  1  0
 18 19  1  0
 19 20  1  0
 20 21  2  0
 21 22  1  0
 22 23  2  0
 23 24  1  0
 24 25  2  0
 23 26  1  0
 26 27  2  0
 27 28  1  0
 28 29  2  0
 28 30  1  0
 15 31  1  0
  8 32  1  0
  8 33  1  0
 10  5  1  0
 25 20  1  0
 30 22  1  0
  1 34  1  0
  1 35  1  0
  1 36  1  0
  5 37  1  0
  6 38  1  0
  6 39  1  0
  7 40  1  0
  7 41  1  0
  9 42  1  0
 11 43  1  0
 11 44  1  0
 11 45  1  0
 12 46  1  0
 12 47  1  0
 12 48  1  0
 13 49  1  0
 13 50  1  0
 14 51  1  0
 14 52  1  0
 16 53  1  0
 16 54  1  0
 16 55  1  0
 17 56  1  0
 17 57  1  0
 18 58  1  0
 18 59  1  0
 21 60  1  0
 24 61  1  0
 25 62  1  0
 26 63  1  0
 27 64  1  0
 31 65  1  0
 32 66  1  0
 32 67  1  0
 32 68  1  0
 33 69  1  0
M  END
>  <Name>  (62) 
Feropolin

>  <PubChem ID>  (62) 
4234015

>  <CDB ID>  (62) 
CDB0062

>  <Smiles>  (62) 
CC(=O)OC1CCC(C(C1(C)C)CCC(C)(CCOC2=CC3=C(C=C2)C=CC(=O)O3)O)(C)O

>  <Chemical class>  (62) 
7-Oxygenated Coumarins

>  <Natural source>  (62) 
Ferula polyantha

>  <Molecular Formula>  (62) 
C26H36O7

>  <InChI-Key>  (62) 
YACCLBYDBDVLGC-UHFFFAOYSA-N

>  <Total Molweight>  (62) 
460.565

>  <cLogP>  (62) 
4.0334

>  <cLogS>  (62) 
-4.862

>  <H-Acceptors>  (62) 
7

>  <H-Donors>  (62) 
2

>  <Rotatable Bonds>  (62) 
9

>  <Polar Surface Area>  (62) 
102.29

$$$$
CDB0063
     RDKit          3D

 62 64  0  0  0  0  0  0  0  0999 V2000
   -3.7422   -0.7276   -2.7063 C   0  0  0  0  0  0  0  0  0  0  0  0
   -4.3216   -0.1834   -1.3808 C   0  0  0  0  0  0  0  0  0  0  0  0
   -3.2369   -0.0823   -0.2384 C   0  0  0  0  0  0  0  0  0  0  0  0
   -3.7688    0.6715    1.0512 C   0  0  0  0  0  0  0  0  0  0  0  0
   -4.9775    1.5870    0.7843 C   0  0  0  0  0  0  0  0  0  0  0  0
   -4.8862    2.2398   -0.5824 C   0  0  0  0  0  0  0  0  0  0  0  0
   -4.9477    1.1897   -1.6651 C   0  0  0  0  0  0  0  0  0  0  0  0
   -5.4973    1.4448   -2.7387 O   0  0  0  0  0  0  0  0  0  0  0  0
   -4.0999   -0.3276    2.1700 C   0  0  0  0  0  0  0  0  0  0  0  0
   -2.7426    1.5286    1.5727 O   0  0  0  0  0  0  0  0  0  0  0  0
   -1.8673    0.4801   -0.7390 C   0  0  0  0  0  0  0  0  0  0  0  0
   -0.6733    0.1468    0.1875 C   0  0  0  0  0  0  0  0  0  0  0  0
    0.3092   -0.9268   -0.3475 C   0  0  0  0  0  0  0  0  0  0  0  0
   -0.3856   -2.2798   -0.5218 C   0  0  0  0  0  0  0  0  0  0  0  0
    1.5135   -1.0264    0.6120 C   0  0  0  0  0  0  0  0  0  0  0  0
    2.5889   -2.0267    0.1791 C   0  0  0  0  0  0  0  0  0  0  0  0
    3.7080   -1.9668    1.0699 O   0  0  0  0  0  0  0  0  0  0  0  0
    4.7231   -1.0955    0.7902 C   0  0  0  0  0  0  0  0  0  0  0  0
    4.7444   -0.1524   -0.2345 C   0  0  0  0  0  0  0  0  0  0  0  0
    5.8610    0.6736   -0.3756 C   0  0  0  0  0  0  0  0  0  0  0  0
    6.9593    0.5849    0.4766 C   0  0  0  0  0  0  0  0  0  0  0  0
    6.9355   -0.3577    1.5022 C   0  0  0  0  0  0  0  0  0  0  0  0
    5.8205   -1.1895    1.6556 C   0  0  0  0  0  0  0  0  0  0  0  0
    8.0884    1.4758    0.2692 C   0  0  0  0  0  0  0  0  0  0  0  0
    8.0501    2.3639   -0.7287 C   0  0  0  0  0  0  0  0  0  0  0  0
    6.8976    2.4822   -1.6394 C   0  0  0  0  0  0  0  0  0  0  0  0
    6.8950    3.3139   -2.5395 O   0  0  0  0  0  0  0  0  0  0  0  0
    5.8339    1.6167   -1.4238 O   0  0  0  0  0  0  0  0  0  0  0  0
    0.7978   -0.5268   -1.6305 O   0  0  0  0  0  0  0  0  0  0  0  0
   -5.4554   -1.1538   -0.9833 C   0  0  0  0  0  0  0  0  0  0  0  0
   -4.5394   -0.9802   -3.4166 H   0  0  0  0  0  0  0  0  0  0  0  0
   -3.1153    0.0118   -3.2163 H   0  0  0  0  0  0  0  0  0  0  0  0
   -3.1567   -1.6376   -2.5406 H   0  0  0  0  0  0  0  0  0  0  0  0
   -3.0252   -1.1205    0.0551 H   0  0  0  0  0  0  0  0  0  0  0  0
   -5.0316    2.3782    1.5432 H   0  0  0  0  0  0  0  0  0  0  0  0
   -5.9188    1.0324    0.8592 H   0  0  0  0  0  0  0  0  0  0  0  0
   -3.9638    2.8170   -0.6963 H   0  0  0  0  0  0  0  0  0  0  0  0
   -5.7331    2.9220   -0.7158 H   0  0  0  0  0  0  0  0  0  0  0  0
   -4.4473    0.1933    3.0699 H   0  0  0  0  0  0  0  0  0  0  0  0
   -3.2051   -0.8873    2.4658 H   0  0  0  0  0  0  0  0  0  0  0  0
   -4.8707   -1.0434    1.8729 H   0  0  0  0  0  0  0  0  0  0  0  0
   -3.0402    1.8919    2.4256 H   0  0  0  0  0  0  0  0  0  0  0  0
   -1.9458    1.5693   -0.8416 H   0  0  0  0  0  0  0  0  0  0  0  0
   -1.6267    0.1158   -1.7385 H   0  0  0  0  0  0  0  0  0  0  0  0
   -0.1122    1.0822    0.3195 H   0  0  0  0  0  0  0  0  0  0  0  0
   -1.0153   -0.1576    1.1828 H   0  0  0  0  0  0  0  0  0  0  0  0
    0.2875   -3.0234   -0.9614 H   0  0  0  0  0  0  0  0  0  0  0  0
   -0.7590   -2.6653    0.4322 H   0  0  0  0  0  0  0  0  0  0  0  0
   -1.2249   -2.2095   -1.2201 H   0  0  0  0  0  0  0  0  0  0  0  0
    1.1744   -1.2890    1.6227 H   0  0  0  0  0  0  0  0  0  0  0  0
    1.9785   -0.0368    0.7064 H   0  0  0  0  0  0  0  0  0  0  0  0
    2.1931   -3.0436    0.2757 H   0  0  0  0  0  0  0  0  0  0  0  0
    2.8902   -1.9210   -0.8685 H   0  0  0  0  0  0  0  0  0  0  0  0
    3.9211   -0.0284   -0.9282 H   0  0  0  0  0  0  0  0  0  0  0  0
    7.7713   -0.4589    2.1897 H   0  0  0  0  0  0  0  0  0  0  0  0
    5.8059   -1.9231    2.4592 H   0  0  0  0  0  0  0  0  0  0  0  0
    8.9470    1.4065    0.9278 H   0  0  0  0  0  0  0  0  0  0  0  0
    8.8700    3.0460   -0.9178 H   0  0  0  0  0  0  0  0  0  0  0  0
    1.0353    0.4163   -1.5838 H   0  0  0  0  0  0  0  0  0  0  0  0
   -6.0122   -0.8320   -0.1025 H   0  0  0  0  0  0  0  0  0  0  0  0
   -6.1951   -1.2463   -1.7881 H   0  0  0  0  0  0  0  0  0  0  0  0
   -5.0597   -2.1553   -0.7802 H   0  0  0  0  0  0  0  0  0  0  0  0
  1  2  1  0
  2  3  1  0
  3  4  1  0
  4  5  1  0
  5  6  1  0
  6  7  1  0
  7  8  2  0
  4  9  1  0
  4 10  1  0
  3 11  1  0
 11 12  1  0
 12 13  1  0
 13 14  1  0
 13 15  1  0
 15 16  1  0
 16 17  1  0
 17 18  1  0
 18 19  2  0
 19 20  1  0
 20 21  2  0
 21 22  1  0
 22 23  2  0
 21 24  1  0
 24 25  2  0
 25 26  1  0
 26 27  2  0
 26 28  1  0
 13 29  1  0
  2 30  1  0
  7  2  1  0
 23 18  1  0
 28 20  1  0
  1 31  1  0
  1 32  1  0
  1 33  1  0
  3 34  1  0
  5 35  1  0
  5 36  1  0
  6 37  1  0
  6 38  1  0
  9 39  1  0
  9 40  1  0
  9 41  1  0
 10 42  1  0
 11 43  1  0
 11 44  1  0
 12 45  1  0
 12 46  1  0
 14 47  1  0
 14 48  1  0
 14 49  1  0
 15 50  1  0
 15 51  1  0
 16 52  1  0
 16 53  1  0
 19 54  1  0
 22 55  1  0
 23 56  1  0
 24 57  1  0
 25 58  1  0
 29 59  1  0
 30 60  1  0
 30 61  1  0
 30 62  1  0
M  END
>  <Name>  (63) 
Feropolone

>  <PubChem ID>  (63) 
23961958

>  <CDB ID>  (63) 
CDB0063

>  <Smiles>  (63) 
CC1(C(C(CCC1=O)(C)O)CCC(C)(CCOC2=CC3=C(C=C2)C=CC(=O)O3)O)C

>  <Chemical class>  (63) 
7-Oxygenated Coumarins

>  <Natural source>  (63) 
Ferula polyantha

>  <Molecular Formula>  (63) 
C24H32O6

>  <InChI-Key>  (63) 
PTVZJAODPHITSJ-UHFFFAOYSA-N

>  <Total Molweight>  (63) 
416.512

>  <cLogP>  (63) 
3.6925

>  <cLogS>  (63) 
-4.503

>  <H-Acceptors>  (63) 
6

>  <H-Donors>  (63) 
2

>  <Rotatable Bonds>  (63) 
7

>  <Polar Surface Area>  (63) 
93.06

$$$$
CDB0064
     RDKit          3D

 57 60  0  0  0  0  0  0  0  0999 V2000
    0.5279   -3.0016    1.2973 C   0  0  0  0  0  0  0  0  0  0  0  0
   -0.7161   -2.3698    0.7406 C   0  0  0  0  0  0  0  0  0  0  0  0
   -1.8993   -2.5915    1.3315 C   0  0  0  0  0  0  0  0  0  0  0  0
   -3.1192   -2.0297    0.7245 C   0  0  0  0  0  0  0  0  0  0  0  0
   -4.1384   -2.7207    0.7627 O   0  0  0  0  0  0  0  0  0  0  0  0
   -3.0658   -0.6661    0.0065 C   0  0  0  0  0  0  0  0  0  0  0  0
   -4.0074    0.4065    0.6956 C   0  0  0  0  0  0  0  0  0  0  0  0
   -3.2577    1.1476    1.8256 C   0  0  0  0  0  0  0  0  0  0  0  0
   -1.9435    1.7580    1.3558 C   0  0  0  0  0  0  0  0  0  0  0  0
   -0.9897    0.6981    0.8172 C   0  0  0  0  0  0  0  0  0  0  0  0
   -1.5708   -0.2058   -0.3076 C   0  0  0  0  0  0  0  0  0  0  0  0
   -0.6651   -1.4999   -0.5137 C   0  0  0  0  0  0  0  0  0  0  0  0
    0.7648   -1.2657   -1.0798 C   0  0  0  0  0  0  0  0  0  0  0  0
    1.5320   -0.4215   -0.2285 O   0  0  0  0  0  0  0  0  0  0  0  0
    2.8076   -0.1200   -0.6134 C   0  0  0  0  0  0  0  0  0  0  0  0
    3.4892    0.7314    0.2572 C   0  0  0  0  0  0  0  0  0  0  0  0
    4.7981    1.1088   -0.0325 C   0  0  0  0  0  0  0  0  0  0  0  0
    5.4517    0.6560   -1.1747 C   0  0  0  0  0  0  0  0  0  0  0  0
    4.7704   -0.1960   -2.0441 C   0  0  0  0  0  0  0  0  0  0  0  0
    3.4519   -0.5830   -1.7641 C   0  0  0  0  0  0  0  0  0  0  0  0
    6.8181    1.0846   -1.4219 C   0  0  0  0  0  0  0  0  0  0  0  0
    7.4170    1.9028   -0.5512 C   0  0  0  0  0  0  0  0  0  0  0  0
    6.7442    2.3960    0.6640 C   0  0  0  0  0  0  0  0  0  0  0  0
    7.3257    3.1470    1.4384 O   0  0  0  0  0  0  0  0  0  0  0  0
    5.4402    1.9709    0.8777 O   0  0  0  0  0  0  0  0  0  0  0  0
   -1.5463    0.5925   -1.6369 C   0  0  0  0  0  0  0  0  0  0  0  0
   -2.9735    0.2356    2.8879 O   0  0  0  0  0  0  0  0  0  0  0  0
   -5.2962   -0.2224    1.2957 C   0  0  0  0  0  0  0  0  0  0  0  0
   -4.5398    1.4286   -0.3422 C   0  0  0  0  0  0  0  0  0  0  0  0
    0.9949   -3.6577    0.5568 H   0  0  0  0  0  0  0  0  0  0  0  0
    1.2473   -2.2391    1.6086 H   0  0  0  0  0  0  0  0  0  0  0  0
    0.3133   -3.6162    2.1789 H   0  0  0  0  0  0  0  0  0  0  0  0
   -2.0382   -3.2373    2.1894 H   0  0  0  0  0  0  0  0  0  0  0  0
   -3.5149   -0.9083   -0.9702 H   0  0  0  0  0  0  0  0  0  0  0  0
   -3.8957    1.9375    2.2407 H   0  0  0  0  0  0  0  0  0  0  0  0
   -2.1111    2.5361    0.6053 H   0  0  0  0  0  0  0  0  0  0  0  0
   -1.4514    2.2520    2.2034 H   0  0  0  0  0  0  0  0  0  0  0  0
   -0.6532    0.0900    1.6647 H   0  0  0  0  0  0  0  0  0  0  0  0
   -0.0974    1.2236    0.4587 H   0  0  0  0  0  0  0  0  0  0  0  0
   -1.1530   -2.1016   -1.2985 H   0  0  0  0  0  0  0  0  0  0  0  0
    0.6896   -0.8199   -2.0784 H   0  0  0  0  0  0  0  0  0  0  0  0
    1.2691   -2.2329   -1.1980 H   0  0  0  0  0  0  0  0  0  0  0  0
    3.0018    1.0983    1.1560 H   0  0  0  0  0  0  0  0  0  0  0  0
    5.2513   -0.5694   -2.9452 H   0  0  0  0  0  0  0  0  0  0  0  0
    2.9592   -1.2481   -2.4661 H   0  0  0  0  0  0  0  0  0  0  0  0
    7.3329    0.7343   -2.3096 H   0  0  0  0  0  0  0  0  0  0  0  0
    8.4339    2.2464   -0.6967 H   0  0  0  0  0  0  0  0  0  0  0  0
   -2.1632    1.4873   -1.6103 H   0  0  0  0  0  0  0  0  0  0  0  0
   -1.8929   -0.0245   -2.4734 H   0  0  0  0  0  0  0  0  0  0  0  0
   -0.5393    0.9480   -1.8783 H   0  0  0  0  0  0  0  0  0  0  0  0
   -2.5942    0.7488    3.6225 H   0  0  0  0  0  0  0  0  0  0  0  0
   -5.9597    0.5524    1.6998 H   0  0  0  0  0  0  0  0  0  0  0  0
   -5.8621   -0.7666    0.5311 H   0  0  0  0  0  0  0  0  0  0  0  0
   -5.0898   -0.9035    2.1271 H   0  0  0  0  0  0  0  0  0  0  0  0
   -5.3351    2.0486    0.0903 H   0  0  0  0  0  0  0  0  0  0  0  0
   -3.7878    2.1319   -0.6944 H   0  0  0  0  0  0  0  0  0  0  0  0
   -4.9646    0.9194   -1.2145 H   0  0  0  0  0  0  0  0  0  0  0  0
  1  2  1  0
  2  3  2  0
  3  4  1  0
  4  5  2  0
  4  6  1  0
  6  7  1  0
  7  8  1  0
  8  9  1  0
  9 10  1  0
 10 11  1  0
 11 12  1  0
 12 13  1  0
 13 14  1  0
 14 15  1  0
 15 16  2  0
 16 17  1  0
 17 18  2  0
 18 19  1  0
 19 20  2  0
 18 21  1  0
 21 22  2  0
 22 23  1  0
 23 24  2  0
 23 25  1  0
 11 26  1  0
  8 27  1  0
  7 28  1  0
  7 29  1  0
 12  2  1  0
 11  6  1  0
 20 15  1  0
 25 17  1  0
  1 30  1  0
  1 31  1  0
  1 32  1  0
  3 33  1  0
  6 34  1  0
  8 35  1  0
  9 36  1  0
  9 37  1  0
 10 38  1  0
 10 39  1  0
 12 40  1  0
 13 41  1  0
 13 42  1  0
 16 43  1  0
 19 44  1  0
 20 45  1  0
 21 46  1  0
 22 47  1  0
 26 48  1  0
 26 49  1  0
 26 50  1  0
 27 51  1  0
 28 52  1  0
 28 53  1  0
 28 54  1  0
 29 55  1  0
 29 56  1  0
 29 57  1  0
M  END
>  <Name>  (64) 
Ligupersin B

>  <PubChem ID>  (64) 
11876038

>  <CDB ID>  (64) 
CDB0064

>  <Smiles>  (64) 
CC1=CC(=O)C2C(C(CCC2(C1COC3=CC4=C(C=C3)C=CC(=O)O4)C)O)(C)C

>  <Chemical class>  (64) 
7-Oxygenated Coumarins

>  <Natural source>  (64) 
Ligularia persica

>  <Molecular Formula>  (64) 
C24H28O5

>  <InChI-Key>  (64) 
HIQLOIOGTRDMIW-UHFFFAOYSA-N

>  <Total Molweight>  (64) 
396.481

>  <cLogP>  (64) 
3.6438

>  <cLogS>  (64) 
-4.623

>  <H-Acceptors>  (64) 
5

>  <H-Donors>  (64) 
1

>  <Rotatable Bonds>  (64) 
3

>  <Polar Surface Area>  (64) 
72.83

$$$$
CDB0065
     RDKit          3D

 57 59  0  0  0  0  0  0  0  0999 V2000
    1.5812    0.6303   -2.4611 C   0  0  0  0  0  0  0  0  0  0  0  0
    0.8380   -0.4368   -1.7101 C   0  0  0  0  0  0  0  0  0  0  0  0
    0.9661   -1.7299   -2.0552 C   0  0  0  0  0  0  0  0  0  0  0  0
    0.2295   -2.7915   -1.2994 C   0  0  0  0  0  0  0  0  0  0  0  0
   -1.2415   -2.3598   -1.1094 C   0  0  0  0  0  0  0  0  0  0  0  0
   -1.3703   -0.9257   -0.4135 C   0  0  0  0  0  0  0  0  0  0  0  0
    0.0058   -0.1065   -0.4667 C   0  0  0  0  0  0  0  0  0  0  0  0
   -0.1606    1.4108   -0.1571 C   0  0  0  0  0  0  0  0  0  0  0  0
    1.0894    2.0621    0.0977 O   0  0  0  0  0  0  0  0  0  0  0  0
    1.6314    2.0363    1.3494 C   0  0  0  0  0  0  0  0  0  0  0  0
    2.8555    2.6992    1.4582 C   0  0  0  0  0  0  0  0  0  0  0  0
    3.5132    2.7417    2.6852 C   0  0  0  0  0  0  0  0  0  0  0  0
    2.9802    2.1359    3.8183 C   0  0  0  0  0  0  0  0  0  0  0  0
    1.7577    1.4736    3.7107 C   0  0  0  0  0  0  0  0  0  0  0  0
    1.0864    1.4249    2.4800 C   0  0  0  0  0  0  0  0  0  0  0  0
    3.7129    2.2130    5.0708 C   0  0  0  0  0  0  0  0  0  0  0  0
    4.8804    2.8625    5.1087 C   0  0  0  0  0  0  0  0  0  0  0  0
    5.4642    3.5120    3.9213 C   0  0  0  0  0  0  0  0  0  0  0  0
    6.5375    4.0991    3.9960 O   0  0  0  0  0  0  0  0  0  0  0  0
    4.7446    3.4235    2.7378 O   0  0  0  0  0  0  0  0  0  0  0  0
   -1.7235   -1.1004    1.0924 C   0  0  0  0  0  0  0  0  0  0  0  0
   -2.5617   -0.1266   -1.0472 C   0  0  0  0  0  0  0  0  0  0  0  0
   -2.4542    0.2143   -2.5344 C   0  0  0  0  0  0  0  0  0  0  0  0
   -3.5763    1.1298   -2.9355 C   0  0  0  0  0  0  0  0  0  0  0  0
   -4.6400    0.7962   -3.4284 O   0  0  0  0  0  0  0  0  0  0  0  0
   -3.3138    2.4217   -2.6624 O   0  0  0  0  0  0  0  0  0  0  0  0
   -2.1211   -3.4856   -0.5435 C   0  0  0  0  0  0  0  0  0  0  0  0
   -1.6859   -4.4053    0.3370 C   0  0  0  0  0  0  0  0  0  0  0  0
   -3.5307   -3.5714   -1.0726 C   0  0  0  0  0  0  0  0  0  0  0  0
    0.9028    1.4216   -2.7928 H   0  0  0  0  0  0  0  0  0  0  0  0
    2.3689    1.0661   -1.8402 H   0  0  0  0  0  0  0  0  0  0  0  0
    2.0651    0.2307   -3.3595 H   0  0  0  0  0  0  0  0  0  0  0  0
    1.5962   -2.0377   -2.8851 H   0  0  0  0  0  0  0  0  0  0  0  0
    0.2709   -3.7240   -1.8762 H   0  0  0  0  0  0  0  0  0  0  0  0
    0.7372   -2.9764   -0.3457 H   0  0  0  0  0  0  0  0  0  0  0  0
   -1.5932   -2.2466   -2.1433 H   0  0  0  0  0  0  0  0  0  0  0  0
    0.6304   -0.4953    0.3530 H   0  0  0  0  0  0  0  0  0  0  0  0
   -0.8594    1.6069    0.6616 H   0  0  0  0  0  0  0  0  0  0  0  0
   -0.5885    1.9213   -1.0263 H   0  0  0  0  0  0  0  0  0  0  0  0
    3.2946    3.1794    0.5882 H   0  0  0  0  0  0  0  0  0  0  0  0
    1.3118    0.9879    4.5755 H   0  0  0  0  0  0  0  0  0  0  0  0
    0.1415    0.8963    2.4450 H   0  0  0  0  0  0  0  0  0  0  0  0
    3.3022    1.7423    5.9569 H   0  0  0  0  0  0  0  0  0  0  0  0
    5.4593    2.9441    6.0205 H   0  0  0  0  0  0  0  0  0  0  0  0
   -1.8130   -0.1372    1.6032 H   0  0  0  0  0  0  0  0  0  0  0  0
   -0.9556   -1.6819    1.6145 H   0  0  0  0  0  0  0  0  0  0  0  0
   -2.6864   -1.6032    1.2323 H   0  0  0  0  0  0  0  0  0  0  0  0
   -2.7176    0.8016   -0.4820 H   0  0  0  0  0  0  0  0  0  0  0  0
   -3.4945   -0.6822   -0.8973 H   0  0  0  0  0  0  0  0  0  0  0  0
   -1.5116    0.7038   -2.7896 H   0  0  0  0  0  0  0  0  0  0  0  0
   -2.5264   -0.6763   -3.1658 H   0  0  0  0  0  0  0  0  0  0  0  0
   -4.1155    2.8976   -2.9661 H   0  0  0  0  0  0  0  0  0  0  0  0
   -0.6798   -4.3957    0.7421 H   0  0  0  0  0  0  0  0  0  0  0  0
   -2.3362   -5.1989    0.6950 H   0  0  0  0  0  0  0  0  0  0  0  0
   -4.0216   -4.5064   -0.7803 H   0  0  0  0  0  0  0  0  0  0  0  0
   -4.1412   -2.7511   -0.6883 H   0  0  0  0  0  0  0  0  0  0  0  0
   -3.5353   -3.5342   -2.1667 H   0  0  0  0  0  0  0  0  0  0  0  0
  1  2  1  0
  2  3  2  0
  3  4  1  0
  4  5  1  0
  5  6  1  0
  6  7  1  0
  7  8  1  0
  8  9  1  0
  9 10  1  0
 10 11  2  0
 11 12  1  0
 12 13  2  0
 13 14  1  0
 14 15  2  0
 13 16  1  0
 16 17  2  0
 17 18  1  0
 18 19  2  0
 18 20  1  0
  6 21  1  0
  6 22  1  0
 22 23  1  0
 23 24  1  0
 24 25  2  0
 24 26  1  0
  5 27  1  0
 27 28  2  0
 27 29  1  0
  7  2  1  0
 15 10  1  0
 20 12  1  0
  1 30  1  0
  1 31  1  0
  1 32  1  0
  3 33  1  0
  4 34  1  0
  4 35  1  0
  5 36  1  0
  7 37  1  0
  8 38  1  0
  8 39  1  0
 11 40  1  0
 14 41  1  0
 15 42  1  0
 16 43  1  0
 17 44  1  0
 21 45  1  0
 21 46  1  0
 21 47  1  0
 22 48  1  0
 22 49  1  0
 23 50  1  0
 23 51  1  0
 26 52  1  0
 28 53  1  0
 28 54  1  0
 29 55  1  0
 29 56  1  0
 29 57  1  0
M  END
>  <Name>  (65) 
Karatavic Acid

>  <PubChem ID>  (65) 
10340705

>  <CDB ID>  (65) 
CDB0065

>  <Smiles>  (65) 
CC1=CCC(C(C1COC2=CC3=C(C=C2)C=CC(=O)O3)(C)CCC(=O)O)C(=C)C

>  <Chemical class>  (65) 
7-Oxygenated Coumarins

>  <Natural source>  (65) 
Ferula karatavica

>  <Molecular Formula>  (65) 
C24H28O5

>  <InChI-Key>  (65) 
DRASTJFRZGDAQT-UHFFFAOYSA-N

>  <Total Molweight>  (65) 
396.481

>  <cLogP>  (65) 
4.7205

>  <cLogS>  (65) 
-4.755

>  <H-Acceptors>  (65) 
5

>  <H-Donors>  (65) 
1

>  <Rotatable Bonds>  (65) 
7

>  <Polar Surface Area>  (65) 
72.83

$$$$
CDB0066
     RDKit          3D

 65 67  0  0  0  0  0  0  0  0999 V2000
    1.4349   -4.0510    1.4401 C   0  0  0  0  0  0  0  0  0  0  0  0
    0.1621   -3.4249    0.8505 C   0  0  0  0  0  0  0  0  0  0  0  0
   -1.0497   -4.2623    1.3122 C   0  0  0  0  0  0  0  0  0  0  0  0
   -2.3899   -3.5833    1.0620 C   0  0  0  0  0  0  0  0  0  0  0  0
   -2.2666   -2.5698   -0.0493 C   0  0  0  0  0  0  0  0  0  0  0  0
   -2.8490   -2.7076   -1.2675 C   0  0  0  0  0  0  0  0  0  0  0  0
   -3.6244   -3.9307   -1.6978 C   0  0  0  0  0  0  0  0  0  0  0  0
   -2.8008   -1.6590   -2.3544 C   0  0  0  0  0  0  0  0  0  0  0  0
   -1.3698   -1.3791    0.3558 C   0  0  0  0  0  0  0  0  0  0  0  0
   -0.0392   -1.8754    1.1083 C   0  0  0  0  0  0  0  0  0  0  0  0
   -0.0685   -1.5911    2.6273 C   0  0  0  0  0  0  0  0  0  0  0  0
    1.1971   -1.1355    0.4971 C   0  0  0  0  0  0  0  0  0  0  0  0
    1.1013    0.2736    0.6872 O   0  0  0  0  0  0  0  0  0  0  0  0
    2.0940    1.0512    0.1581 C   0  0  0  0  0  0  0  0  0  0  0  0
    1.9706    2.4141    0.4298 C   0  0  0  0  0  0  0  0  0  0  0  0
    2.9042    3.3082   -0.0870 C   0  0  0  0  0  0  0  0  0  0  0  0
    3.9749    2.8765   -0.8632 C   0  0  0  0  0  0  0  0  0  0  0  0
    4.1074    1.5124   -1.1228 C   0  0  0  0  0  0  0  0  0  0  0  0
    3.1689    0.6025   -0.6144 C   0  0  0  0  0  0  0  0  0  0  0  0
    4.9137    3.8593   -1.3777 C   0  0  0  0  0  0  0  0  0  0  0  0
    4.7236    5.1540   -1.1055 C   0  0  0  0  0  0  0  0  0  0  0  0
    3.5903    5.6341   -0.2950 C   0  0  0  0  0  0  0  0  0  0  0  0
    3.4388    6.8307   -0.0772 O   0  0  0  0  0  0  0  0  0  0  0  0
    2.7181    4.6743    0.1990 O   0  0  0  0  0  0  0  0  0  0  0  0
   -2.2893   -0.3579    1.0856 C   0  0  0  0  0  0  0  0  0  0  0  0
   -1.8437    1.1051    1.1249 C   0  0  0  0  0  0  0  0  0  0  0  0
   -1.7342    1.7557   -0.2509 C   0  0  0  0  0  0  0  0  0  0  0  0
   -1.4151    3.1426   -0.0611 O   0  0  0  0  0  0  0  0  0  0  0  0
   -1.1408    3.8174   -1.2109 C   0  0  0  0  0  0  0  0  0  0  0  0
   -1.1786    3.3457   -2.3388 O   0  0  0  0  0  0  0  0  0  0  0  0
   -0.8153    5.2469   -0.9025 C   0  0  0  0  0  0  0  0  0  0  0  0
    2.3415   -3.5993    1.0295 H   0  0  0  0  0  0  0  0  0  0  0  0
    1.4671   -3.9684    2.5303 H   0  0  0  0  0  0  0  0  0  0  0  0
    1.4793   -5.1185    1.1944 H   0  0  0  0  0  0  0  0  0  0  0  0
    0.2465   -3.5574   -0.2391 H   0  0  0  0  0  0  0  0  0  0  0  0
   -0.9724   -4.5061    2.3794 H   0  0  0  0  0  0  0  0  0  0  0  0
   -1.0295   -5.2238    0.7820 H   0  0  0  0  0  0  0  0  0  0  0  0
   -2.7182   -3.0687    1.9735 H   0  0  0  0  0  0  0  0  0  0  0  0
   -3.1624   -4.3376    0.8904 H   0  0  0  0  0  0  0  0  0  0  0  0
   -3.3972   -4.8216   -1.1083 H   0  0  0  0  0  0  0  0  0  0  0  0
   -4.6997   -3.7350   -1.6399 H   0  0  0  0  0  0  0  0  0  0  0  0
   -3.3780   -4.1875   -2.7345 H   0  0  0  0  0  0  0  0  0  0  0  0
   -2.5279   -0.6657   -1.9935 H   0  0  0  0  0  0  0  0  0  0  0  0
   -2.0893   -1.9550   -3.1317 H   0  0  0  0  0  0  0  0  0  0  0  0
   -3.7890   -1.5507   -2.8160 H   0  0  0  0  0  0  0  0  0  0  0  0
   -1.0250   -0.9172   -0.5739 H   0  0  0  0  0  0  0  0  0  0  0  0
    0.8661   -1.8978    3.1085 H   0  0  0  0  0  0  0  0  0  0  0  0
   -0.8824   -2.1209    3.1299 H   0  0  0  0  0  0  0  0  0  0  0  0
   -0.1810   -0.5264    2.8474 H   0  0  0  0  0  0  0  0  0  0  0  0
    1.2518   -1.3655   -0.5749 H   0  0  0  0  0  0  0  0  0  0  0  0
    2.1170   -1.4762    0.9845 H   0  0  0  0  0  0  0  0  0  0  0  0
    1.1463    2.7777    1.0363 H   0  0  0  0  0  0  0  0  0  0  0  0
    4.9321    1.1398   -1.7258 H   0  0  0  0  0  0  0  0  0  0  0  0
    3.3051   -0.4487   -0.8475 H   0  0  0  0  0  0  0  0  0  0  0  0
    5.7534    3.5282   -1.9784 H   0  0  0  0  0  0  0  0  0  0  0  0
    5.3967    5.9194   -1.4720 H   0  0  0  0  0  0  0  0  0  0  0  0
   -2.4813   -0.6890    2.1130 H   0  0  0  0  0  0  0  0  0  0  0  0
   -3.2782   -0.3614    0.6043 H   0  0  0  0  0  0  0  0  0  0  0  0
   -2.5811    1.6710    1.7104 H   0  0  0  0  0  0  0  0  0  0  0  0
   -0.9101    1.2280    1.6784 H   0  0  0  0  0  0  0  0  0  0  0  0
   -2.6911    1.6825   -0.7802 H   0  0  0  0  0  0  0  0  0  0  0  0
   -0.9504    1.2793   -0.8474 H   0  0  0  0  0  0  0  0  0  0  0  0
   -1.7326    5.7893   -0.6625 H   0  0  0  0  0  0  0  0  0  0  0  0
   -0.1120    5.3007   -0.0674 H   0  0  0  0  0  0  0  0  0  0  0  0
   -0.3395    5.7057   -1.7739 H   0  0  0  0  0  0  0  0  0  0  0  0
  1  2  1  0
  2  3  1  0
  3  4  1  0
  4  5  1  0
  5  6  2  3
  6  7  1  0
  6  8  1  0
  5  9  1  0
  9 10  1  0
 10 11  1  0
 10 12  1  0
 12 13  1  0
 13 14  1  0
 14 15  2  0
 15 16  1  0
 16 17  2  0
 17 18  1  0
 18 19  2  0
 17 20  1  0
 20 21  2  0
 21 22  1  0
 22 23  2  0
 22 24  1  0
  9 25  1  0
 25 26  1  0
 26 27  1  0
 27 28  1  0
 28 29  1  0
 29 30  2  0
 29 31  1  0
 10  2  1  0
 19 14  1  0
 24 16  1  0
  1 32  1  0
  1 33  1  0
  1 34  1  0
  2 35  1  0
  3 36  1  0
  3 37  1  0
  4 38  1  0
  4 39  1  0
  7 40  1  0
  7 41  1  0
  7 42  1  0
  8 43  1  0
  8 44  1  0
  8 45  1  0
  9 46  1  0
 11 47  1  0
 11 48  1  0
 11 49  1  0
 12 50  1  0
 12 51  1  0
 15 52  1  0
 18 53  1  0
 19 54  1  0
 20 55  1  0
 21 56  1  0
 25 57  1  0
 25 58  1  0
 26 59  1  0
 26 60  1  0
 27 61  1  0
 27 62  1  0
 31 63  1  0
 31 64  1  0
 31 65  1  0
M  END
>  <Name>  (66) 
Fekrynol

>  <PubChem ID>  (66) 
59052606

>  <CDB ID>  (66) 
CDB0066

>  <Smiles>  (66) 
CC1CCC(=C(C)C)C(C1(C)COC2=CC3=C(C=C2)C=CC(=O)O3)CCCOC(=O)C

>  <Chemical class>  (66) 
7-Oxygenated Coumarins

>  <Natural source>  (66) 
Ferula krylovii

>  <Molecular Formula>  (66) 
C26H34O5

>  <InChI-Key>  (66) 
RXZXZUBVBUVUGS-UHFFFAOYSA-N

>  <Total Molweight>  (66) 
426.551

>  <cLogP>  (66) 
5.7518

>  <cLogS>  (66) 
-5.244

>  <H-Acceptors>  (66) 
5

>  <H-Donors>  (66) 
0

>  <Rotatable Bonds>  (66) 
8

>  <Polar Surface Area>  (66) 
61.83

$$$$
CDB0067
     RDKit          3D

 59 61  0  0  0  0  0  0  0  0999 V2000
   -1.2886   -3.5132    0.0905 C   0  0  0  0  0  0  0  0  0  0  0  0
   -0.4456   -2.3013   -0.3467 C   0  0  0  0  0  0  0  0  0  0  0  0
   -0.9702   -1.7257   -1.6865 C   0  0  0  0  0  0  0  0  0  0  0  0
   -1.9249   -0.5367   -1.5391 C   0  0  0  0  0  0  0  0  0  0  0  0
   -2.6703   -0.6162   -0.2284 C   0  0  0  0  0  0  0  0  0  0  0  0
   -3.9981   -0.8975   -0.1476 C   0  0  0  0  0  0  0  0  0  0  0  0
   -4.8811   -1.1411   -1.3529 C   0  0  0  0  0  0  0  0  0  0  0  0
   -4.7813   -1.0368    1.1379 C   0  0  0  0  0  0  0  0  0  0  0  0
   -1.7253   -0.4542    0.9782 C   0  0  0  0  0  0  0  0  0  0  0  0
   -0.3160   -1.1753    0.7451 C   0  0  0  0  0  0  0  0  0  0  0  0
    0.1424   -1.7929    2.0935 C   0  0  0  0  0  0  0  0  0  0  0  0
    0.8173   -0.1785    0.3160 C   0  0  0  0  0  0  0  0  0  0  0  0
    2.0377   -0.8899    0.0747 O   0  0  0  0  0  0  0  0  0  0  0  0
    3.1211   -0.1605   -0.3287 C   0  0  0  0  0  0  0  0  0  0  0  0
    3.1629    1.2214   -0.5001 C   0  0  0  0  0  0  0  0  0  0  0  0
    4.3537    1.8174   -0.9185 C   0  0  0  0  0  0  0  0  0  0  0  0
    5.5044    1.0737   -1.1705 C   0  0  0  0  0  0  0  0  0  0  0  0
    5.4596   -0.3083   -0.9973 C   0  0  0  0  0  0  0  0  0  0  0  0
    4.2718   -0.9180   -0.5780 C   0  0  0  0  0  0  0  0  0  0  0  0
    6.7091    1.7614   -1.6034 C   0  0  0  0  0  0  0  0  0  0  0  0
    6.6909    3.0896   -1.7508 C   0  0  0  0  0  0  0  0  0  0  0  0
    5.4871    3.8985   -1.4902 C   0  0  0  0  0  0  0  0  0  0  0  0
    5.5075    5.1152   -1.6357 O   0  0  0  0  0  0  0  0  0  0  0  0
    4.3491    3.2185   -1.0782 O   0  0  0  0  0  0  0  0  0  0  0  0
   -1.5777    1.0309    1.4022 C   0  0  0  0  0  0  0  0  0  0  0  0
   -2.8754    1.7149    1.8306 C   0  0  0  0  0  0  0  0  0  0  0  0
   -2.6137    3.1034    2.3426 C   0  0  0  0  0  0  0  0  0  0  0  0
   -2.8516    3.5113    3.4670 O   0  0  0  0  0  0  0  0  0  0  0  0
   -2.0893    3.9211    1.4112 O   0  0  0  0  0  0  0  0  0  0  0  0
   -1.3939   -4.2272   -0.7340 H   0  0  0  0  0  0  0  0  0  0  0  0
   -0.8018   -4.0536    0.9085 H   0  0  0  0  0  0  0  0  0  0  0  0
   -2.2920   -3.2383    0.4223 H   0  0  0  0  0  0  0  0  0  0  0  0
    0.5490   -2.7199   -0.5522 H   0  0  0  0  0  0  0  0  0  0  0  0
   -1.4601   -2.5157   -2.2697 H   0  0  0  0  0  0  0  0  0  0  0  0
   -0.1167   -1.4004   -2.2956 H   0  0  0  0  0  0  0  0  0  0  0  0
   -1.3687    0.4071   -1.5698 H   0  0  0  0  0  0  0  0  0  0  0  0
   -2.5716   -0.4801   -2.4183 H   0  0  0  0  0  0  0  0  0  0  0  0
   -5.4346   -0.2302   -1.6016 H   0  0  0  0  0  0  0  0  0  0  0  0
   -4.3351   -1.4765   -2.2368 H   0  0  0  0  0  0  0  0  0  0  0  0
   -5.6083   -1.9335   -1.1411 H   0  0  0  0  0  0  0  0  0  0  0  0
   -4.1961   -0.8867    2.0445 H   0  0  0  0  0  0  0  0  0  0  0  0
   -5.2145   -2.0408    1.2058 H   0  0  0  0  0  0  0  0  0  0  0  0
   -5.5985   -0.3076    1.1558 H   0  0  0  0  0  0  0  0  0  0  0  0
   -2.1824   -0.9770    1.8253 H   0  0  0  0  0  0  0  0  0  0  0  0
   -0.6246   -2.4419    2.5290 H   0  0  0  0  0  0  0  0  0  0  0  0
    1.0508   -2.3929    1.9718 H   0  0  0  0  0  0  0  0  0  0  0  0
    0.3552   -1.0115    2.8318 H   0  0  0  0  0  0  0  0  0  0  0  0
    0.9999    0.5451    1.1191 H   0  0  0  0  0  0  0  0  0  0  0  0
    0.5362    0.3617   -0.5919 H   0  0  0  0  0  0  0  0  0  0  0  0
    2.3029    1.8556   -0.3190 H   0  0  0  0  0  0  0  0  0  0  0  0
    6.3354   -0.9248   -1.1827 H   0  0  0  0  0  0  0  0  0  0  0  0
    4.2410   -1.9974   -0.4436 H   0  0  0  0  0  0  0  0  0  0  0  0
    7.6067    1.1859   -1.8007 H   0  0  0  0  0  0  0  0  0  0  0  0
    7.5668    3.6405   -2.0713 H   0  0  0  0  0  0  0  0  0  0  0  0
   -0.8754    1.0931    2.2433 H   0  0  0  0  0  0  0  0  0  0  0  0
   -1.1361    1.6115    0.5830 H   0  0  0  0  0  0  0  0  0  0  0  0
   -3.5958    1.7903    1.0104 H   0  0  0  0  0  0  0  0  0  0  0  0
   -3.3469    1.1533    2.6438 H   0  0  0  0  0  0  0  0  0  0  0  0
   -1.9962    4.7809    1.8731 H   0  0  0  0  0  0  0  0  0  0  0  0
  1  2  1  0
  2  3  1  0
  3  4  1  0
  4  5  1  0
  5  6  2  3
  6  7  1  0
  6  8  1  0
  5  9  1  0
  9 10  1  0
 10 11  1  0
 10 12  1  0
 12 13  1  0
 13 14  1  0
 14 15  2  0
 15 16  1  0
 16 17  2  0
 17 18  1  0
 18 19  2  0
 17 20  1  0
 20 21  2  0
 21 22  1  0
 22 23  2  0
 22 24  1  0
  9 25  1  0
 25 26  1  0
 26 27  1  0
 27 28  2  0
 27 29  1  0
 10  2  1  0
 19 14  1  0
 24 16  1  0
  1 30  1  0
  1 31  1  0
  1 32  1  0
  2 33  1  0
  3 34  1  0
  3 35  1  0
  4 36  1  0
  4 37  1  0
  7 38  1  0
  7 39  1  0
  7 40  1  0
  8 41  1  0
  8 42  1  0
  8 43  1  0
  9 44  1  0
 11 45  1  0
 11 46  1  0
 11 47  1  0
 12 48  1  0
 12 49  1  0
 15 50  1  0
 18 51  1  0
 19 52  1  0
 20 53  1  0
 21 54  1  0
 25 55  1  0
 25 56  1  0
 26 57  1  0
 26 58  1  0
 29 59  1  0
M  END
>  <Name>  (67) 
Galbanic Acid (Asacoumarin B)

>  <PubChem ID>  (67) 
7082474

>  <CDB ID>  (67) 
CDB0067

>  <Smiles>  (67) 
CC1CCC(=C(C)C)C(C1(C)COC2=CC3=C(C=C2)C=CC(=O)O3)CCC(=O)O

>  <Chemical class>  (67) 
7-Oxygenated Coumarins

>  <Natural source>  (67) 
Ferula gummosa

>  <Molecular Formula>  (67) 
C24H30O5

>  <InChI-Key>  (67) 
CVWWNYPTZYQCSE-UHFFFAOYSA-N

>  <Total Molweight>  (67) 
398.497

>  <cLogP>  (67) 
4.9176

>  <cLogS>  (67) 
-4.816

>  <H-Acceptors>  (67) 
5

>  <H-Donors>  (67) 
1

>  <Rotatable Bonds>  (67) 
6

>  <Polar Surface Area>  (67) 
72.83

$$$$
CDB0068
     RDKit          3D

 58 61  0  0  0  0  0  0  0  0999 V2000
    0.9740    1.8982   -2.2278 C   0  0  0  0  0  0  0  0  0  0  0  0
   -0.3180    1.3940   -1.6367 C   0  0  0  0  0  0  0  0  0  0  0  0
   -1.4827    1.6907   -2.2419 C   0  0  0  0  0  0  0  0  0  0  0  0
   -2.8366    1.3594   -1.6922 C   0  0  0  0  0  0  0  0  0  0  0  0
   -2.7896    0.9496   -0.2052 C   0  0  0  0  0  0  0  0  0  0  0  0
   -4.2059    0.6435    0.4229 C   0  0  0  0  0  0  0  0  0  0  0  0
   -4.0211    0.1958    1.9017 C   0  0  0  0  0  0  0  0  0  0  0  0
   -3.0011   -0.9248    2.0621 C   0  0  0  0  0  0  0  0  0  0  0  0
   -1.6351   -0.5166    1.5301 C   0  0  0  0  0  0  0  0  0  0  0  0
   -1.6431   -0.1037    0.0342 C   0  0  0  0  0  0  0  0  0  0  0  0
   -0.2575    0.6086   -0.3142 C   0  0  0  0  0  0  0  0  0  0  0  0
    0.9445   -0.3783   -0.2670 C   0  0  0  0  0  0  0  0  0  0  0  0
    2.1483    0.3542   -0.0042 O   0  0  0  0  0  0  0  0  0  0  0  0
    3.3212   -0.3474    0.0173 C   0  0  0  0  0  0  0  0  0  0  0  0
    4.4598    0.4314    0.2286 C   0  0  0  0  0  0  0  0  0  0  0  0
    5.7122   -0.1766    0.2698 C   0  0  0  0  0  0  0  0  0  0  0  0
    5.8615   -1.5506    0.1062 C   0  0  0  0  0  0  0  0  0  0  0  0
    4.7230   -2.3290   -0.1033 C   0  0  0  0  0  0  0  0  0  0  0  0
    3.4564   -1.7289   -0.1472 C   0  0  0  0  0  0  0  0  0  0  0  0
    7.1947   -2.1266    0.1594 C   0  0  0  0  0  0  0  0  0  0  0  0
    8.2468   -1.3280    0.3635 C   0  0  0  0  0  0  0  0  0  0  0  0
    8.1128    0.1293    0.5391 C   0  0  0  0  0  0  0  0  0  0  0  0
    9.1021    0.8288    0.7238 O   0  0  0  0  0  0  0  0  0  0  0  0
    6.8292    0.6544    0.4843 O   0  0  0  0  0  0  0  0  0  0  0  0
   -1.7997   -1.3765   -0.8361 C   0  0  0  0  0  0  0  0  0  0  0  0
   -5.2442   -0.2625    2.4756 O   0  0  0  0  0  0  0  0  0  0  0  0
   -5.0449    1.9533    0.4253 C   0  0  0  0  0  0  0  0  0  0  0  0
   -5.0478   -0.3872   -0.3608 C   0  0  0  0  0  0  0  0  0  0  0  0
    0.8040    2.5513   -3.0911 H   0  0  0  0  0  0  0  0  0  0  0  0
    1.5977    1.0677   -2.5715 H   0  0  0  0  0  0  0  0  0  0  0  0
    1.5282    2.4843   -1.4880 H   0  0  0  0  0  0  0  0  0  0  0  0
   -1.4814    2.2427   -3.1803 H   0  0  0  0  0  0  0  0  0  0  0  0
   -3.4622    2.2500   -1.8120 H   0  0  0  0  0  0  0  0  0  0  0  0
   -3.2743    0.5742   -2.3161 H   0  0  0  0  0  0  0  0  0  0  0  0
   -2.4507    1.8496    0.3371 H   0  0  0  0  0  0  0  0  0  0  0  0
   -3.6841    1.0492    2.5051 H   0  0  0  0  0  0  0  0  0  0  0  0
   -2.9120   -1.1792    3.1263 H   0  0  0  0  0  0  0  0  0  0  0  0
   -3.3524   -1.8451    1.5819 H   0  0  0  0  0  0  0  0  0  0  0  0
   -1.2657    0.3193    2.1389 H   0  0  0  0  0  0  0  0  0  0  0  0
   -0.9446   -1.3491    1.7040 H   0  0  0  0  0  0  0  0  0  0  0  0
   -0.0743    1.3727    0.4568 H   0  0  0  0  0  0  0  0  0  0  0  0
    0.8171   -1.1009    0.5434 H   0  0  0  0  0  0  0  0  0  0  0  0
    1.0278   -0.9134   -1.2214 H   0  0  0  0  0  0  0  0  0  0  0  0
    4.3701    1.5061    0.3594 H   0  0  0  0  0  0  0  0  0  0  0  0
    4.8030   -3.4056   -0.2341 H   0  0  0  0  0  0  0  0  0  0  0  0
    2.5966   -2.3710   -0.3102 H   0  0  0  0  0  0  0  0  0  0  0  0
    7.3170   -3.1964    0.0329 H   0  0  0  0  0  0  0  0  0  0  0  0
    9.2572   -1.7154    0.4103 H   0  0  0  0  0  0  0  0  0  0  0  0
   -2.7455   -1.8882   -0.6696 H   0  0  0  0  0  0  0  0  0  0  0  0
   -1.0237   -2.1147   -0.6053 H   0  0  0  0  0  0  0  0  0  0  0  0
   -1.7259   -1.1638   -1.9065 H   0  0  0  0  0  0  0  0  0  0  0  0
   -5.8220    0.5082    2.6032 H   0  0  0  0  0  0  0  0  0  0  0  0
   -5.2687    2.2948   -0.5903 H   0  0  0  0  0  0  0  0  0  0  0  0
   -4.5172    2.7616    0.9438 H   0  0  0  0  0  0  0  0  0  0  0  0
   -6.0094    1.8174    0.9263 H   0  0  0  0  0  0  0  0  0  0  0  0
   -4.6559   -1.4012   -0.2894 H   0  0  0  0  0  0  0  0  0  0  0  0
   -6.0728   -0.4322    0.0279 H   0  0  0  0  0  0  0  0  0  0  0  0
   -5.1351   -0.1274   -1.4196 H   0  0  0  0  0  0  0  0  0  0  0  0
  1  2  1  0
  2  3  2  0
  3  4  1  0
  4  5  1  0
  5  6  1  0
  6  7  1  0
  7  8  1  0
  8  9  1  0
  9 10  1  0
 10 11  1  0
 11 12  1  0
 12 13  1  0
 13 14  1  0
 14 15  2  0
 15 16  1  0
 16 17  2  0
 17 18  1  0
 18 19  2  0
 17 20  1  0
 20 21  2  0
 21 22  1  0
 22 23  2  0
 22 24  1  0
 10 25  1  0
  7 26  1  0
  6 27  1  0
  6 28  1  0
 11  2  1  0
 10  5  1  0
 19 14  1  0
 24 16  1  0
  1 29  1  0
  1 30  1  0
  1 31  1  0
  3 32  1  0
  4 33  1  0
  4 34  1  0
  5 35  1  0
  7 36  1  0
  8 37  1  0
  8 38  1  0
  9 39  1  0
  9 40  1  0
 11 41  1  0
 12 42  1  0
 12 43  1  0
 15 44  1  0
 18 45  1  0
 19 46  1  0
 20 47  1  0
 21 48  1  0
 25 49  1  0
 25 50  1  0
 25 51  1  0
 26 52  1  0
 27 53  1  0
 27 54  1  0
 27 55  1  0
 28 56  1  0
 28 57  1  0
 28 58  1  0
M  END
>  <Name>  (68) 
Feselol (Moschatol)

>  <PubChem ID>  (68) 
179577

>  <CDB ID>  (68) 
CDB0068

>  <Smiles>  (68) 
CC1=CCC2C(C(CCC2(C1COC3=CC4=C(C=C3)C=CC(=O)O4)C)O)(C)C

>  <Chemical class>  (68) 
7-Oxygenated Coumarins

>  <Natural source>  (68) 
Ferula pseudooreoselinum

>  <Molecular Formula>  (68) 
C24H30O4

>  <InChI-Key>  (68) 
MCTDXPDDZLFJHR-UHFFFAOYSA-N

>  <Total Molweight>  (68) 
382.498

>  <cLogP>  (68) 
4.3522

>  <cLogS>  (68) 
-4.971

>  <H-Acceptors>  (68) 
4

>  <H-Donors>  (68) 
1

>  <Rotatable Bonds>  (68) 
3

>  <Polar Surface Area>  (68) 
55.76

$$$$
CDB0069
     RDKit          3D

 58 61  0  0  0  0  0  0  0  0999 V2000
    0.9740    1.8982   -2.2278 C   0  0  0  0  0  0  0  0  0  0  0  0
   -0.3180    1.3940   -1.6367 C   0  0  0  0  0  0  0  0  0  0  0  0
   -1.4827    1.6907   -2.2419 C   0  0  0  0  0  0  0  0  0  0  0  0
   -2.8366    1.3594   -1.6922 C   0  0  0  0  0  0  0  0  0  0  0  0
   -2.7896    0.9496   -0.2052 C   0  0  0  0  0  0  0  0  0  0  0  0
   -4.2059    0.6435    0.4229 C   0  0  0  0  0  0  0  0  0  0  0  0
   -4.0211    0.1958    1.9017 C   0  0  0  0  0  0  0  0  0  0  0  0
   -3.0011   -0.9248    2.0621 C   0  0  0  0  0  0  0  0  0  0  0  0
   -1.6351   -0.5166    1.5301 C   0  0  0  0  0  0  0  0  0  0  0  0
   -1.6431   -0.1037    0.0342 C   0  0  0  0  0  0  0  0  0  0  0  0
   -0.2575    0.6086   -0.3142 C   0  0  0  0  0  0  0  0  0  0  0  0
    0.9445   -0.3783   -0.2670 C   0  0  0  0  0  0  0  0  0  0  0  0
    2.1483    0.3542   -0.0042 O   0  0  0  0  0  0  0  0  0  0  0  0
    3.3212   -0.3474    0.0173 C   0  0  0  0  0  0  0  0  0  0  0  0
    4.4598    0.4314    0.2286 C   0  0  0  0  0  0  0  0  0  0  0  0
    5.7122   -0.1766    0.2698 C   0  0  0  0  0  0  0  0  0  0  0  0
    5.8615   -1.5506    0.1062 C   0  0  0  0  0  0  0  0  0  0  0  0
    4.7230   -2.3290   -0.1033 C   0  0  0  0  0  0  0  0  0  0  0  0
    3.4564   -1.7289   -0.1472 C   0  0  0  0  0  0  0  0  0  0  0  0
    7.1947   -2.1266    0.1594 C   0  0  0  0  0  0  0  0  0  0  0  0
    8.2468   -1.3280    0.3635 C   0  0  0  0  0  0  0  0  0  0  0  0
    8.1128    0.1293    0.5391 C   0  0  0  0  0  0  0  0  0  0  0  0
    9.1021    0.8288    0.7238 O   0  0  0  0  0  0  0  0  0  0  0  0
    6.8292    0.6544    0.4843 O   0  0  0  0  0  0  0  0  0  0  0  0
   -1.7997   -1.3765   -0.8361 C   0  0  0  0  0  0  0  0  0  0  0  0
   -5.2442   -0.2625    2.4756 O   0  0  0  0  0  0  0  0  0  0  0  0
   -5.0449    1.9533    0.4253 C   0  0  0  0  0  0  0  0  0  0  0  0
   -5.0478   -0.3872   -0.3608 C   0  0  0  0  0  0  0  0  0  0  0  0
    0.8040    2.5513   -3.0911 H   0  0  0  0  0  0  0  0  0  0  0  0
    1.5977    1.0677   -2.5715 H   0  0  0  0  0  0  0  0  0  0  0  0
    1.5282    2.4843   -1.4880 H   0  0  0  0  0  0  0  0  0  0  0  0
   -1.4814    2.2427   -3.1803 H   0  0  0  0  0  0  0  0  0  0  0  0
   -3.4622    2.2500   -1.8120 H   0  0  0  0  0  0  0  0  0  0  0  0
   -3.2743    0.5742   -2.3161 H   0  0  0  0  0  0  0  0  0  0  0  0
   -2.4507    1.8496    0.3371 H   0  0  0  0  0  0  0  0  0  0  0  0
   -3.6841    1.0492    2.5051 H   0  0  0  0  0  0  0  0  0  0  0  0
   -2.9120   -1.1792    3.1263 H   0  0  0  0  0  0  0  0  0  0  0  0
   -3.3524   -1.8451    1.5819 H   0  0  0  0  0  0  0  0  0  0  0  0
   -1.2657    0.3193    2.1389 H   0  0  0  0  0  0  0  0  0  0  0  0
   -0.9446   -1.3491    1.7040 H   0  0  0  0  0  0  0  0  0  0  0  0
   -0.0743    1.3727    0.4568 H   0  0  0  0  0  0  0  0  0  0  0  0
    0.8171   -1.1009    0.5434 H   0  0  0  0  0  0  0  0  0  0  0  0
    1.0278   -0.9134   -1.2214 H   0  0  0  0  0  0  0  0  0  0  0  0
    4.3701    1.5061    0.3594 H   0  0  0  0  0  0  0  0  0  0  0  0
    4.8030   -3.4056   -0.2341 H   0  0  0  0  0  0  0  0  0  0  0  0
    2.5966   -2.3710   -0.3102 H   0  0  0  0  0  0  0  0  0  0  0  0
    7.3170   -3.1964    0.0329 H   0  0  0  0  0  0  0  0  0  0  0  0
    9.2572   -1.7154    0.4103 H   0  0  0  0  0  0  0  0  0  0  0  0
   -2.7455   -1.8882   -0.6696 H   0  0  0  0  0  0  0  0  0  0  0  0
   -1.0237   -2.1147   -0.6053 H   0  0  0  0  0  0  0  0  0  0  0  0
   -1.7259   -1.1638   -1.9065 H   0  0  0  0  0  0  0  0  0  0  0  0
   -5.8220    0.5082    2.6032 H   0  0  0  0  0  0  0  0  0  0  0  0
   -5.2687    2.2948   -0.5903 H   0  0  0  0  0  0  0  0  0  0  0  0
   -4.5172    2.7616    0.9438 H   0  0  0  0  0  0  0  0  0  0  0  0
   -6.0094    1.8174    0.9263 H   0  0  0  0  0  0  0  0  0  0  0  0
   -4.6559   -1.4012   -0.2894 H   0  0  0  0  0  0  0  0  0  0  0  0
   -6.0728   -0.4322    0.0279 H   0  0  0  0  0  0  0  0  0  0  0  0
   -5.1351   -0.1274   -1.4196 H   0  0  0  0  0  0  0  0  0  0  0  0
  1  2  1  0
  2  3  2  0
  3  4  1  0
  4  5  1  0
  5  6  1  0
  6  7  1  0
  7  8  1  0
  8  9  1  0
  9 10  1  0
 10 11  1  0
 11 12  1  0
 12 13  1  0
 13 14  1  0
 14 15  2  0
 15 16  1  0
 16 17  2  0
 17 18  1  0
 18 19  2  0
 17 20  1  0
 20 21  2  0
 21 22  1  0
 22 23  2  0
 22 24  1  0
 10 25  1  0
  7 26  1  0
  6 27  1  0
  6 28  1  0
 11  2  1  0
 10  5  1  0
 19 14  1  0
 24 16  1  0
  1 29  1  0
  1 30  1  0
  1 31  1  0
  3 32  1  0
  4 33  1  0
  4 34  1  0
  5 35  1  0
  7 36  1  0
  8 37  1  0
  8 38  1  0
  9 39  1  0
  9 40  1  0
 11 41  1  0
 12 42  1  0
 12 43  1  0
 15 44  1  0
 18 45  1  0
 19 46  1  0
 20 47  1  0
 21 48  1  0
 25 49  1  0
 25 50  1  0
 25 51  1  0
 26 52  1  0
 27 53  1  0
 27 54  1  0
 27 55  1  0
 28 56  1  0
 28 57  1  0
 28 58  1  0
M  END
>  <Name>  (69) 
Conferol (Mogoltacin)

>  <PubChem ID>  (69) 
11892267

>  <CDB ID>  (69) 
CDB0069

>  <Smiles>  (69) 
CC1=CCC2C(C(CCC2(C1COC3=CC4=C(C=C3)C=CC(=O)O4)C)O)(C)C

>  <Chemical class>  (69) 
7-Oxygenated Coumarins

>  <Natural source>  (69) 
Ferula conocaula

>  <Molecular Formula>  (69) 
C24H30O4

>  <InChI-Key>  (69) 
MCTDXPDDZLFJHR-UHFFFAOYSA-N

>  <Total Molweight>  (69) 
382.498

>  <cLogP>  (69) 
4.3522

>  <cLogS>  (69) 
-4.971

>  <H-Acceptors>  (69) 
4

>  <H-Donors>  (69) 
1

>  <Rotatable Bonds>  (69) 
3

>  <Polar Surface Area>  (69) 
55.76

$$$$
CDB0070
     RDKit          3D

 56 59  0  0  0  0  0  0  0  0999 V2000
    1.1689   -3.1132   -0.1595 C   0  0  0  0  0  0  0  0  0  0  0  0
   -0.1955   -2.4730   -0.2155 C   0  0  0  0  0  0  0  0  0  0  0  0
   -1.2517   -3.1420    0.2737 C   0  0  0  0  0  0  0  0  0  0  0  0
   -2.6385   -2.6064    0.3764 C   0  0  0  0  0  0  0  0  0  0  0  0
   -2.7860   -1.0885    0.1433 C   0  0  0  0  0  0  0  0  0  0  0  0
   -2.8518   -0.2047    1.4394 C   0  0  0  0  0  0  0  0  0  0  0  0
   -3.1287    1.2550    1.0337 C   0  0  0  0  0  0  0  0  0  0  0  0
   -3.3933    2.1274    1.8627 O   0  0  0  0  0  0  0  0  0  0  0  0
   -3.0837    1.5937   -0.4386 C   0  0  0  0  0  0  0  0  0  0  0  0
   -1.8260    0.9876   -1.0363 C   0  0  0  0  0  0  0  0  0  0  0  0
   -1.8029   -0.5704   -0.9767 C   0  0  0  0  0  0  0  0  0  0  0  0
   -0.3037   -1.0460   -0.7558 C   0  0  0  0  0  0  0  0  0  0  0  0
    0.5669   -0.8091   -2.0300 C   0  0  0  0  0  0  0  0  0  0  0  0
    1.9722   -0.7874   -1.7486 O   0  0  0  0  0  0  0  0  0  0  0  0
    2.5287    0.3350   -1.2067 C   0  0  0  0  0  0  0  0  0  0  0  0
    3.7634    0.1285   -0.5888 C   0  0  0  0  0  0  0  0  0  0  0  0
    4.4270    1.2001    0.0035 C   0  0  0  0  0  0  0  0  0  0  0  0
    3.8943    2.4851   -0.0118 C   0  0  0  0  0  0  0  0  0  0  0  0
    2.6693    2.6947   -0.6448 C   0  0  0  0  0  0  0  0  0  0  0  0
    1.9919    1.6233   -1.2451 C   0  0  0  0  0  0  0  0  0  0  0  0
    4.6324    3.5626    0.6250 C   0  0  0  0  0  0  0  0  0  0  0  0
    5.8046    3.2983    1.2103 C   0  0  0  0  0  0  0  0  0  0  0  0
    6.3890    1.9455    1.2376 C   0  0  0  0  0  0  0  0  0  0  0  0
    7.4676    1.7424    1.7833 O   0  0  0  0  0  0  0  0  0  0  0  0
    5.6638    0.9342    0.6228 O   0  0  0  0  0  0  0  0  0  0  0  0
   -2.3455   -1.1077   -2.3350 C   0  0  0  0  0  0  0  0  0  0  0  0
   -4.0396   -0.6376    2.3303 C   0  0  0  0  0  0  0  0  0  0  0  0
   -1.5765   -0.2244    2.2897 C   0  0  0  0  0  0  0  0  0  0  0  0
    1.8724   -2.4650    0.3722 H   0  0  0  0  0  0  0  0  0  0  0  0
    1.5483   -3.3128   -1.1659 H   0  0  0  0  0  0  0  0  0  0  0  0
    1.1536   -4.0707    0.3731 H   0  0  0  0  0  0  0  0  0  0  0  0
   -1.1187   -4.1554    0.6506 H   0  0  0  0  0  0  0  0  0  0  0  0
   -3.0479   -2.9012    1.3458 H   0  0  0  0  0  0  0  0  0  0  0  0
   -3.2455   -3.1395   -0.3675 H   0  0  0  0  0  0  0  0  0  0  0  0
   -3.8010   -0.9927   -0.2773 H   0  0  0  0  0  0  0  0  0  0  0  0
   -3.9944    1.2351   -0.9274 H   0  0  0  0  0  0  0  0  0  0  0  0
   -3.0516    2.6837   -0.5442 H   0  0  0  0  0  0  0  0  0  0  0  0
   -0.9731    1.3955   -0.4801 H   0  0  0  0  0  0  0  0  0  0  0  0
   -1.7099    1.3416   -2.0676 H   0  0  0  0  0  0  0  0  0  0  0  0
    0.1353   -0.4305    0.0370 H   0  0  0  0  0  0  0  0  0  0  0  0
    0.4139   -1.6402   -2.7299 H   0  0  0  0  0  0  0  0  0  0  0  0
    0.2807    0.0902   -2.5823 H   0  0  0  0  0  0  0  0  0  0  0  0
    4.2015   -0.8652   -0.5626 H   0  0  0  0  0  0  0  0  0  0  0  0
    2.2294    3.6886   -0.6856 H   0  0  0  0  0  0  0  0  0  0  0  0
    1.0564    1.8396   -1.7473 H   0  0  0  0  0  0  0  0  0  0  0  0
    4.2215    4.5659    0.6173 H   0  0  0  0  0  0  0  0  0  0  0  0
    6.3871    4.0712    1.6968 H   0  0  0  0  0  0  0  0  0  0  0  0
   -2.2675   -2.1974   -2.4037 H   0  0  0  0  0  0  0  0  0  0  0  0
   -1.8085   -0.6874   -3.1913 H   0  0  0  0  0  0  0  0  0  0  0  0
   -3.3997   -0.8401   -2.4724 H   0  0  0  0  0  0  0  0  0  0  0  0
   -3.8746   -1.6144    2.7941 H   0  0  0  0  0  0  0  0  0  0  0  0
   -4.9707   -0.6828    1.7539 H   0  0  0  0  0  0  0  0  0  0  0  0
   -4.2079    0.0714    3.1498 H   0  0  0  0  0  0  0  0  0  0  0  0
   -1.2571   -1.2440    2.5232 H   0  0  0  0  0  0  0  0  0  0  0  0
   -1.7375    0.2892    3.2458 H   0  0  0  0  0  0  0  0  0  0  0  0
   -0.7509    0.3036    1.8068 H   0  0  0  0  0  0  0  0  0  0  0  0
  1  2  1  0
  2  3  2  0
  3  4  1  0
  4  5  1  0
  5  6  1  0
  6  7  1  0
  7  8  2  0
  7  9  1  0
  9 10  1  0
 10 11  1  0
 11 12  1  0
 12 13  1  0
 13 14  1  0
 14 15  1  0
 15 16  2  0
 16 17  1  0
 17 18  2  0
 18 19  1  0
 19 20  2  0
 18 21  1  0
 21 22  2  0
 22 23  1  0
 23 24  2  0
 23 25  1  0
 11 26  1  0
  6 27  1  0
  6 28  1  0
 12  2  1  0
 11  5  1  0
 20 15  1  0
 25 17  1  0
  1 29  1  0
  1 30  1  0
  1 31  1  0
  3 32  1  0
  4 33  1  0
  4 34  1  0
  5 35  1  0
  9 36  1  0
  9 37  1  0
 10 38  1  0
 10 39  1  0
 12 40  1  0
 13 41  1  0
 13 42  1  0
 16 43  1  0
 19 44  1  0
 20 45  1  0
 21 46  1  0
 22 47  1  0
 26 48  1  0
 26 49  1  0
 26 50  1  0
 27 51  1  0
 27 52  1  0
 27 53  1  0
 28 54  1  0
 28 55  1  0
 28 56  1  0
M  END
>  <Name>  (70) 
Conferone

>  <PubChem ID>  (70) 
3108117

>  <CDB ID>  (70) 
CDB0070

>  <Smiles>  (70) 
CC1=CCC2C(C(=O)CCC2(C1COC3=CC4=C(C=C3)C=CC(=O)O4)C)(C)C

>  <Chemical class>  (70) 
7-Oxygenated Coumarins

>  <Natural source>  (70) 
Ferula conocaula

>  <Molecular Formula>  (70) 
C24H28O4

>  <InChI-Key>  (70) 
VPAXJOUATWLOPR-UHFFFAOYSA-N

>  <Total Molweight>  (70) 
380.482

>  <cLogP>  (70) 
4.4959

>  <cLogS>  (70) 
-5.022

>  <H-Acceptors>  (70) 
4

>  <H-Donors>  (70) 
0

>  <Rotatable Bonds>  (70) 
3

>  <Polar Surface Area>  (70) 
52.6

$$$$
CDB0071
     RDKit          3D

 59 62  0  0  0  0  0  0  0  0999 V2000
    0.7058   -0.2490    3.3145 C   0  0  0  0  0  0  0  0  0  0  0  0
   -0.5458   -0.1479    2.4928 C   0  0  0  0  0  0  0  0  0  0  0  0
   -1.7462   -0.4393    3.0195 C   0  0  0  0  0  0  0  0  0  0  0  0
   -2.9886   -0.2906    2.2055 C   0  0  0  0  0  0  0  0  0  0  0  0
   -2.8848   -0.7812    0.7294 C   0  0  0  0  0  0  0  0  0  0  0  0
   -3.9990   -0.1244   -0.1867 C   0  0  0  0  0  0  0  0  0  0  0  0
   -3.4171    1.1730   -0.7901 C   0  0  0  0  0  0  0  0  0  0  0  0
   -2.2014    0.9395   -1.7000 C   0  0  0  0  0  0  0  0  0  0  0  0
   -1.3634   -0.2840   -1.3422 C   0  0  0  0  0  0  0  0  0  0  0  0
   -1.3861   -0.6938    0.1527 C   0  0  0  0  0  0  0  0  0  0  0  0
   -0.5063    0.2968    1.0288 C   0  0  0  0  0  0  0  0  0  0  0  0
    0.9131    0.6405    0.4969 C   0  0  0  0  0  0  0  0  0  0  0  0
    1.7252   -0.5229    0.3636 O   0  0  0  0  0  0  0  0  0  0  0  0
    3.0001   -0.3528   -0.0980 C   0  0  0  0  0  0  0  0  0  0  0  0
    3.5836    0.8547   -0.4741 C   0  0  0  0  0  0  0  0  0  0  0  0
    4.9037    0.8579   -0.9274 C   0  0  0  0  0  0  0  0  0  0  0  0
    5.6580   -0.3101   -1.0163 C   0  0  0  0  0  0  0  0  0  0  0  0
    5.0712   -1.5166   -0.6399 C   0  0  0  0  0  0  0  0  0  0  0  0
    3.7484   -1.5331   -0.1838 C   0  0  0  0  0  0  0  0  0  0  0  0
    7.0270   -0.2321   -1.4975 C   0  0  0  0  0  0  0  0  0  0  0  0
    7.5349    0.9543   -1.8450 C   0  0  0  0  0  0  0  0  0  0  0  0
    6.7579    2.2035   -1.7606 C   0  0  0  0  0  0  0  0  0  0  0  0
    7.2575    3.2735   -2.0886 O   0  0  0  0  0  0  0  0  0  0  0  0
    5.4532    2.1029   -1.2975 O   0  0  0  0  0  0  0  0  0  0  0  0
   -0.8001   -2.1384    0.2017 C   0  0  0  0  0  0  0  0  0  0  0  0
   -1.3657    2.1041   -1.6555 O   0  0  0  0  0  0  0  0  0  0  0  0
   -4.4131    1.8808   -1.5392 O   0  0  0  0  0  0  0  0  0  0  0  0
   -5.2956    0.2162    0.5994 C   0  0  0  0  0  0  0  0  0  0  0  0
   -4.4723   -1.1183   -1.2788 C   0  0  0  0  0  0  0  0  0  0  0  0
    1.3898   -0.9908    2.8928 H   0  0  0  0  0  0  0  0  0  0  0  0
    0.4918   -0.5598    4.3433 H   0  0  0  0  0  0  0  0  0  0  0  0
    1.2133    0.7184    3.3719 H   0  0  0  0  0  0  0  0  0  0  0  0
   -1.8493   -0.7396    4.0586 H   0  0  0  0  0  0  0  0  0  0  0  0
   -3.2590    0.7706    2.2513 H   0  0  0  0  0  0  0  0  0  0  0  0
   -3.7943   -0.8434    2.7043 H   0  0  0  0  0  0  0  0  0  0  0  0
   -3.1466   -1.8490    0.7819 H   0  0  0  0  0  0  0  0  0  0  0  0
   -3.1360    1.8449    0.0315 H   0  0  0  0  0  0  0  0  0  0  0  0
   -2.5204    0.8398   -2.7454 H   0  0  0  0  0  0  0  0  0  0  0  0
   -0.3347   -0.1488   -1.6950 H   0  0  0  0  0  0  0  0  0  0  0  0
   -1.7219   -1.1290   -1.9400 H   0  0  0  0  0  0  0  0  0  0  0  0
   -1.0184    1.2714    1.0155 H   0  0  0  0  0  0  0  0  0  0  0  0
    1.3916    1.3487    1.1855 H   0  0  0  0  0  0  0  0  0  0  0  0
    0.8274    1.1453   -0.4709 H   0  0  0  0  0  0  0  0  0  0  0  0
    3.0484    1.7962   -0.4297 H   0  0  0  0  0  0  0  0  0  0  0  0
    5.6249   -2.4503   -0.6945 H   0  0  0  0  0  0  0  0  0  0  0  0
    3.2927   -2.4768    0.1091 H   0  0  0  0  0  0  0  0  0  0  0  0
    7.6171   -1.1390   -1.5678 H   0  0  0  0  0  0  0  0  0  0  0  0
    8.5502    1.0562   -2.2085 H   0  0  0  0  0  0  0  0  0  0  0  0
   -1.4569   -2.8404   -0.3273 H   0  0  0  0  0  0  0  0  0  0  0  0
    0.1729   -2.2062   -0.2914 H   0  0  0  0  0  0  0  0  0  0  0  0
   -0.6909   -2.5132    1.2236 H   0  0  0  0  0  0  0  0  0  0  0  0
   -1.7577    2.7544   -2.2645 H   0  0  0  0  0  0  0  0  0  0  0  0
   -4.1379    2.8132   -1.5690 H   0  0  0  0  0  0  0  0  0  0  0  0
   -5.1556    1.0499    1.2943 H   0  0  0  0  0  0  0  0  0  0  0  0
   -6.1067    0.5128   -0.0767 H   0  0  0  0  0  0  0  0  0  0  0  0
   -5.6519   -0.6507    1.1671 H   0  0  0  0  0  0  0  0  0  0  0  0
   -5.1995   -0.6502   -1.9524 H   0  0  0  0  0  0  0  0  0  0  0  0
   -4.9645   -1.9853   -0.8215 H   0  0  0  0  0  0  0  0  0  0  0  0
   -3.6716   -1.5124   -1.9015 H   0  0  0  0  0  0  0  0  0  0  0  0
  1  2  1  0
  2  3  2  0
  3  4  1  0
  4  5  1  0
  5  6  1  0
  6  7  1  0
  7  8  1  0
  8  9  1  0
  9 10  1  0
 10 11  1  0
 11 12  1  0
 12 13  1  0
 13 14  1  0
 14 15  2  0
 15 16  1  0
 16 17  2  0
 17 18  1  0
 18 19  2  0
 17 20  1  0
 20 21  2  0
 21 22  1  0
 22 23  2  0
 22 24  1  0
 10 25  1  0
  8 26  1  0
  7 27  1  0
  6 28  1  0
  6 29  1  0
 11  2  1  0
 10  5  1  0
 19 14  1  0
 24 16  1  0
  1 30  1  0
  1 31  1  0
  1 32  1  0
  3 33  1  0
  4 34  1  0
  4 35  1  0
  5 36  1  0
  7 37  1  0
  8 38  1  0
  9 39  1  0
  9 40  1  0
 11 41  1  0
 12 42  1  0
 12 43  1  0
 15 44  1  0
 18 45  1  0
 19 46  1  0
 20 47  1  0
 21 48  1  0
 25 49  1  0
 25 50  1  0
 25 51  1  0
 26 52  1  0
 27 53  1  0
 28 54  1  0
 28 55  1  0
 28 56  1  0
 29 57  1  0
 29 58  1  0
 29 59  1  0
M  END
>  <Name>  (71) 
Mogoltin

>  <PubChem ID>  (71) 
15453233

>  <CDB ID>  (71) 
CDB0071

>  <Smiles>  (71) 
CC1=CCC2C(C(C(CC2(C1COC3=CC4=C(C=C3)C=CC(=O)O4)C)O)O)(C)C

>  <Chemical class>  (71) 
7-Oxygenated Coumarins

>  <Natural source>  (71) 
Peucedanum mogoltavicum

>  <Molecular Formula>  (71) 
C24H30O5

>  <InChI-Key>  (71) 
JWVMDXKWIBRDDI-UHFFFAOYSA-N

>  <Total Molweight>  (71) 
398.497

>  <cLogP>  (71) 
3.5001

>  <cLogS>  (71) 
-4.572

>  <H-Acceptors>  (71) 
5

>  <H-Donors>  (71) 
2

>  <Rotatable Bonds>  (71) 
3

>  <Polar Surface Area>  (71) 
75.99

$$$$
CDB0072
     RDKit          3D

 64 67  0  0  0  0  0  0  0  0999 V2000
   -1.5110   -3.3403   -0.7004 C   0  0  0  0  0  0  0  0  0  0  0  0
   -0.2788   -2.5039   -0.4607 C   0  0  0  0  0  0  0  0  0  0  0  0
    0.8998   -2.9069   -0.9555 C   0  0  0  0  0  0  0  0  0  0  0  0
    2.2016   -2.2361   -0.6857 C   0  0  0  0  0  0  0  0  0  0  0  0
    2.1963   -1.2524    0.5161 C   0  0  0  0  0  0  0  0  0  0  0  0
    3.5643   -0.4394    0.6242 C   0  0  0  0  0  0  0  0  0  0  0  0
    3.4396    0.9930    0.0014 C   0  0  0  0  0  0  0  0  0  0  0  0
    2.4148    1.0495   -1.1426 C   0  0  0  0  0  0  0  0  0  0  0  0
    0.9981    0.6131   -0.7369 C   0  0  0  0  0  0  0  0  0  0  0  0
    0.9051   -0.3565    0.4741 C   0  0  0  0  0  0  0  0  0  0  0  0
   -0.4137   -1.2533    0.4076 C   0  0  0  0  0  0  0  0  0  0  0  0
   -1.6700   -0.4209    0.0016 C   0  0  0  0  0  0  0  0  0  0  0  0
   -2.8375   -1.0187    0.5807 O   0  0  0  0  0  0  0  0  0  0  0  0
   -4.0456   -0.4508    0.2868 C   0  0  0  0  0  0  0  0  0  0  0  0
   -4.2523    0.6747   -0.5074 C   0  0  0  0  0  0  0  0  0  0  0  0
   -5.5558    1.1297   -0.7132 C   0  0  0  0  0  0  0  0  0  0  0  0
   -6.6590    0.4946   -0.1473 C   0  0  0  0  0  0  0  0  0  0  0  0
   -6.4488   -0.6299    0.6482 C   0  0  0  0  0  0  0  0  0  0  0  0
   -5.1469   -1.0968    0.8614 C   0  0  0  0  0  0  0  0  0  0  0  0
   -7.9876    1.0246   -0.4038 C   0  0  0  0  0  0  0  0  0  0  0  0
   -8.1260    2.1060   -1.1768 C   0  0  0  0  0  0  0  0  0  0  0  0
   -6.9756    2.7938   -1.7892 C   0  0  0  0  0  0  0  0  0  0  0  0
   -7.1409    3.7812   -2.4961 O   0  0  0  0  0  0  0  0  0  0  0  0
   -5.7169    2.2704   -1.5266 O   0  0  0  0  0  0  0  0  0  0  0  0
    0.7686    0.4671    1.7871 C   0  0  0  0  0  0  0  0  0  0  0  0
    2.3356    2.3885   -1.6520 O   0  0  0  0  0  0  0  0  0  0  0  0
    4.7123    1.4272   -0.5441 O   0  0  0  0  0  0  0  0  0  0  0  0
    5.4083    2.3559    0.1639 C   0  0  0  0  0  0  0  0  0  0  0  0
    5.1073    2.8009    1.2621 O   0  0  0  0  0  0  0  0  0  0  0  0
    6.6406    2.7473   -0.5929 C   0  0  0  0  0  0  0  0  0  0  0  0
    4.7509   -1.2151   -0.0147 C   0  0  0  0  0  0  0  0  0  0  0  0
    3.9664   -0.2990    2.1174 C   0  0  0  0  0  0  0  0  0  0  0  0
   -1.2733   -4.2917   -1.1892 H   0  0  0  0  0  0  0  0  0  0  0  0
   -2.2213   -2.8151   -1.3457 H   0  0  0  0  0  0  0  0  0  0  0  0
   -1.9983   -3.5817    0.2497 H   0  0  0  0  0  0  0  0  0  0  0  0
    0.9509   -3.8023   -1.5731 H   0  0  0  0  0  0  0  0  0  0  0  0
    2.9271   -3.0339   -0.4867 H   0  0  0  0  0  0  0  0  0  0  0  0
    2.5134   -1.7440   -1.6117 H   0  0  0  0  0  0  0  0  0  0  0  0
    2.1189   -1.8850    1.4136 H   0  0  0  0  0  0  0  0  0  0  0  0
    3.1217    1.7223    0.7520 H   0  0  0  0  0  0  0  0  0  0  0  0
    2.7788    0.4385   -1.9765 H   0  0  0  0  0  0  0  0  0  0  0  0
    0.5495    0.1499   -1.6258 H   0  0  0  0  0  0  0  0  0  0  0  0
    0.3815    1.5019   -0.5462 H   0  0  0  0  0  0  0  0  0  0  0  0
   -0.5921   -1.6432    1.4219 H   0  0  0  0  0  0  0  0  0  0  0  0
   -1.6018    0.6049    0.3737 H   0  0  0  0  0  0  0  0  0  0  0  0
   -1.7627   -0.3943   -1.0918 H   0  0  0  0  0  0  0  0  0  0  0  0
   -3.4366    1.2147   -0.9736 H   0  0  0  0  0  0  0  0  0  0  0  0
   -7.2823   -1.1539    1.1090 H   0  0  0  0  0  0  0  0  0  0  0  0
   -4.9873   -1.9753    1.4834 H   0  0  0  0  0  0  0  0  0  0  0  0
   -8.8487    0.5344    0.0367 H   0  0  0  0  0  0  0  0  0  0  0  0
   -9.0978    2.5328   -1.3929 H   0  0  0  0  0  0  0  0  0  0  0  0
   -0.2074    0.9529    1.8751 H   0  0  0  0  0  0  0  0  0  0  0  0
    1.4936    1.2752    1.8720 H   0  0  0  0  0  0  0  0  0  0  0  0
    0.8775   -0.1812    2.6641 H   0  0  0  0  0  0  0  0  0  0  0  0
    1.7807    2.3661   -2.4505 H   0  0  0  0  0  0  0  0  0  0  0  0
    6.3642    3.1379   -1.5756 H   0  0  0  0  0  0  0  0  0  0  0  0
    7.1684    3.5330   -0.0449 H   0  0  0  0  0  0  0  0  0  0  0  0
    7.3026    1.8837   -0.6938 H   0  0  0  0  0  0  0  0  0  0  0  0
    5.7130   -0.7353    0.2016 H   0  0  0  0  0  0  0  0  0  0  0  0
    4.6640   -1.2736   -1.1043 H   0  0  0  0  0  0  0  0  0  0  0  0
    4.8209   -2.2327    0.3858 H   0  0  0  0  0  0  0  0  0  0  0  0
    4.9379    0.1969    2.2232 H   0  0  0  0  0  0  0  0  0  0  0  0
    4.0522   -1.2827    2.5938 H   0  0  0  0  0  0  0  0  0  0  0  0
    3.2498    0.2834    2.6986 H   0  0  0  0  0  0  0  0  0  0  0  0
  1  2  1  0
  2  3  2  0
  3  4  1  0
  4  5  1  0
  5  6  1  0
  6  7  1  0
  7  8  1  0
  8  9  1  0
  9 10  1  0
 10 11  1  0
 11 12  1  0
 12 13  1  0
 13 14  1  0
 14 15  2  0
 15 16  1  0
 16 17  2  0
 17 18  1  0
 18 19  2  0
 17 20  1  0
 20 21  2  0
 21 22  1  0
 22 23  2  0
 22 24  1  0
 10 25  1  0
  8 26  1  0
  7 27  1  0
 27 28  1  0
 28 29  2  0
 28 30  1  0
  6 31  1  0
  6 32  1  0
 11  2  1  0
 10  5  1  0
 19 14  1  0
 24 16  1  0
  1 33  1  0
  1 34  1  0
  1 35  1  0
  3 36  1  0
  4 37  1  0
  4 38  1  0
  5 39  1  0
  7 40  1  0
  8 41  1  0
  9 42  1  0
  9 43  1  0
 11 44  1  0
 12 45  1  0
 12 46  1  0
 15 47  1  0
 18 48  1  0
 19 49  1  0
 20 50  1  0
 21 51  1  0
 25 52  1  0
 25 53  1  0
 25 54  1  0
 26 55  1  0
 30 56  1  0
 30 57  1  0
 30 58  1  0
 31 59  1  0
 31 60  1  0
 31 61  1  0
 32 62  1  0
 32 63  1  0
 32 64  1  0
M  END
>  <Name>  (72) 
Mogoltavin

>  <PubChem ID>  (72) 
101311684

>  <CDB ID>  (72) 
CDB0072

>  <Smiles>  (72) 
CC1=CCC2C(C(C(CC2(C1COC3=CC4=C(C=C3)C=CC(=O)O4)C)O)OC(=O)C)(C)C

>  <Chemical class>  (72) 
7-Oxygenated Coumarins

>  <Natural source>  (72) 
Peucedanum mogoltavicum

>  <Molecular Formula>  (72) 
C26H32O6

>  <InChI-Key>  (72) 
IWZTUNIAOIXHOT-UHFFFAOYSA-N

>  <Total Molweight>  (72) 
440.534

>  <cLogP>  (72) 
3.9847

>  <cLogS>  (72) 
-4.982

>  <H-Acceptors>  (72) 
6

>  <H-Donors>  (72) 
1

>  <Rotatable Bonds>  (72) 
5

>  <Polar Surface Area>  (72) 
82.06

$$$$
CDB0073
     RDKit          3D

 71 74  0  0  0  0  0  0  0  0999 V2000
   -8.1775    0.4301   -1.4258 C   0  0  0  0  0  0  0  0  0  0  0  0
   -6.7964    0.3685   -0.8533 C   0  0  0  0  0  0  0  0  0  0  0  0
   -6.4040    0.6832    0.3989 C   0  0  0  0  0  0  0  0  0  0  0  0
   -7.2980    1.1839    1.4975 C   0  0  0  0  0  0  0  0  0  0  0  0
   -4.9714    0.5520    0.8196 C   0  0  0  0  0  0  0  0  0  0  0  0
   -4.5898    0.7392    1.9654 O   0  0  0  0  0  0  0  0  0  0  0  0
   -4.1679    0.2315   -0.2277 O   0  0  0  0  0  0  0  0  0  0  0  0
   -2.7611    0.0686    0.0735 C   0  0  0  0  0  0  0  0  0  0  0  0
   -2.0755    1.4454    0.0508 C   0  0  0  0  0  0  0  0  0  0  0  0
   -0.5764    1.3954   -0.2450 C   0  0  0  0  0  0  0  0  0  0  0  0
    0.1560    0.0853    0.1384 C   0  0  0  0  0  0  0  0  0  0  0  0
   -0.6121   -1.2027   -0.4216 C   0  0  0  0  0  0  0  0  0  0  0  0
   -2.1064   -0.9554   -0.8911 C   0  0  0  0  0  0  0  0  0  0  0  0
   -2.2313   -0.5028   -2.3633 C   0  0  0  0  0  0  0  0  0  0  0  0
   -2.9010   -2.2868   -0.7762 C   0  0  0  0  0  0  0  0  0  0  0  0
    0.2156   -2.0240   -1.4388 C   0  0  0  0  0  0  0  0  0  0  0  0
    1.0119   -1.1676   -2.3634 C   0  0  0  0  0  0  0  0  0  0  0  0
    1.7043   -0.1179   -1.8916 C   0  0  0  0  0  0  0  0  0  0  0  0
    1.6605    0.1475   -0.3822 C   0  0  0  0  0  0  0  0  0  0  0  0
    2.4210    1.4300    0.0653 C   0  0  0  0  0  0  0  0  0  0  0  0
    3.8340    1.3230   -0.1455 O   0  0  0  0  0  0  0  0  0  0  0  0
    4.6140    0.7083    0.7908 C   0  0  0  0  0  0  0  0  0  0  0  0
    5.9649    0.6253    0.4478 C   0  0  0  0  0  0  0  0  0  0  0  0
    6.8643    0.0177    1.3206 C   0  0  0  0  0  0  0  0  0  0  0  0
    6.4513   -0.5140    2.5380 C   0  0  0  0  0  0  0  0  0  0  0  0
    5.1024   -0.4306    2.8820 C   0  0  0  0  0  0  0  0  0  0  0  0
    4.1876    0.1790    2.0109 C   0  0  0  0  0  0  0  0  0  0  0  0
    7.4361   -1.1359    3.4070 C   0  0  0  0  0  0  0  0  0  0  0  0
    8.7144   -1.1848    3.0201 C   0  0  0  0  0  0  0  0  0  0  0  0
    9.1748   -0.6289    1.7350 C   0  0  0  0  0  0  0  0  0  0  0  0
   10.3562   -0.6936    1.4151 O   0  0  0  0  0  0  0  0  0  0  0  0
    8.2147   -0.0399    0.9240 O   0  0  0  0  0  0  0  0  0  0  0  0
    2.5302    0.7295   -2.8160 C   0  0  0  0  0  0  0  0  0  0  0  0
    0.1879   -0.0198    1.6896 C   0  0  0  0  0  0  0  0  0  0  0  0
   -2.6628    2.3081   -0.9345 O   0  0  0  0  0  0  0  0  0  0  0  0
   -8.2030    1.1521   -2.2480 H   0  0  0  0  0  0  0  0  0  0  0  0
   -8.4497   -0.5512   -1.8278 H   0  0  0  0  0  0  0  0  0  0  0  0
   -8.9448    0.7131   -0.7037 H   0  0  0  0  0  0  0  0  0  0  0  0
   -6.0600    0.0113   -1.5728 H   0  0  0  0  0  0  0  0  0  0  0  0
   -6.9213    2.1345    1.8912 H   0  0  0  0  0  0  0  0  0  0  0  0
   -7.3327    0.4592    2.3180 H   0  0  0  0  0  0  0  0  0  0  0  0
   -8.3258    1.3627    1.1757 H   0  0  0  0  0  0  0  0  0  0  0  0
   -2.6715   -0.3568    1.0810 H   0  0  0  0  0  0  0  0  0  0  0  0
   -2.2452    1.9351    1.0167 H   0  0  0  0  0  0  0  0  0  0  0  0
   -0.1210    2.2514    0.2709 H   0  0  0  0  0  0  0  0  0  0  0  0
   -0.4067    1.6107   -1.3072 H   0  0  0  0  0  0  0  0  0  0  0  0
   -0.7059   -1.8852    0.4380 H   0  0  0  0  0  0  0  0  0  0  0  0
   -3.2666   -0.2411   -2.6103 H   0  0  0  0  0  0  0  0  0  0  0  0
   -1.6135    0.3664   -2.5949 H   0  0  0  0  0  0  0  0  0  0  0  0
   -1.9403   -1.2991   -3.0568 H   0  0  0  0  0  0  0  0  0  0  0  0
   -2.9112   -2.6531    0.2566 H   0  0  0  0  0  0  0  0  0  0  0  0
   -2.4733   -3.0759   -1.4022 H   0  0  0  0  0  0  0  0  0  0  0  0
   -3.9432   -2.1615   -1.0911 H   0  0  0  0  0  0  0  0  0  0  0  0
    0.9125   -2.6785   -0.8977 H   0  0  0  0  0  0  0  0  0  0  0  0
   -0.4147   -2.7003   -2.0233 H   0  0  0  0  0  0  0  0  0  0  0  0
    1.0343   -1.4336   -3.4167 H   0  0  0  0  0  0  0  0  0  0  0  0
    2.1990   -0.6998    0.0680 H   0  0  0  0  0  0  0  0  0  0  0  0
    2.0899    2.2869   -0.5325 H   0  0  0  0  0  0  0  0  0  0  0  0
    2.2188    1.7183    1.1000 H   0  0  0  0  0  0  0  0  0  0  0  0
    6.3133    1.0318   -0.4976 H   0  0  0  0  0  0  0  0  0  0  0  0
    4.7446   -0.8352    3.8259 H   0  0  0  0  0  0  0  0  0  0  0  0
    3.1501    0.2197    2.3213 H   0  0  0  0  0  0  0  0  0  0  0  0
    7.1198   -1.5514    4.3572 H   0  0  0  0  0  0  0  0  0  0  0  0
    9.4808   -1.6387    3.6364 H   0  0  0  0  0  0  0  0  0  0  0  0
    3.5938    0.6466   -2.5762 H   0  0  0  0  0  0  0  0  0  0  0  0
    2.2259    1.7787   -2.7601 H   0  0  0  0  0  0  0  0  0  0  0  0
    2.4139    0.4212   -3.8613 H   0  0  0  0  0  0  0  0  0  0  0  0
   -0.8044   -0.1865    2.1164 H   0  0  0  0  0  0  0  0  0  0  0  0
    0.8185   -0.8572    2.0092 H   0  0  0  0  0  0  0  0  0  0  0  0
    0.5748    0.8891    2.1591 H   0  0  0  0  0  0  0  0  0  0  0  0
   -3.6054    2.0694   -0.9952 H   0  0  0  0  0  0  0  0  0  0  0  0
  1  2  1  0
  2  3  2  3
  3  4  1  0
  3  5  1  0
  5  6  2  0
  5  7  1  0
  7  8  1  0
  8  9  1  0
  9 10  1  0
 10 11  1  0
 11 12  1  0
 12 13  1  0
 13 14  1  0
 13 15  1  0
 12 16  1  0
 16 17  1  0
 17 18  2  0
 18 19  1  0
 19 20  1  0
 20 21  1  0
 21 22  1  0
 22 23  2  0
 23 24  1  0
 24 25  2  0
 25 26  1  0
 26 27  2  0
 25 28  1  0
 28 29  2  0
 29 30  1  0
 30 31  2  0
 30 32  1  0
 18 33  1  0
 11 34  1  0
  9 35  1  0
 13  8  1  0
 19 11  1  0
 27 22  1  0
 32 24  1  0
  1 36  1  0
  1 37  1  0
  1 38  1  0
  2 39  1  0
  4 40  1  0
  4 41  1  0
  4 42  1  0
  8 43  1  0
  9 44  1  0
 10 45  1  0
 10 46  1  0
 12 47  1  0
 14 48  1  0
 14 49  1  0
 14 50  1  0
 15 51  1  0
 15 52  1  0
 15 53  1  0
 16 54  1  0
 16 55  1  0
 17 56  1  0
 19 57  1  0
 20 58  1  0
 20 59  1  0
 23 60  1  0
 26 61  1  0
 27 62  1  0
 28 63  1  0
 29 64  1  0
 33 65  1  0
 33 66  1  0
 33 67  1  0
 34 68  1  0
 34 69  1  0
 34 70  1  0
 35 71  1  0
M  END
>  <Name>  (73) 
Mogoltavinin

>  <PubChem ID>  (73) 
15560589

>  <CDB ID>  (73) 
CDB0073

>  <Smiles>  (73) 
CC=C(C)C(=O)OC1C(CC2(C(C1(C)C)CC=C(C2COC3=CC4=C(C=C3)C=CC(=O)O4)C)C)O

>  <Chemical class>  (73) 
7-Oxygenated Coumarins

>  <Natural source>  (73) 
Peucedanum mogoltavicum

>  <Molecular Formula>  (73) 
C29H36O6

>  <InChI-Key>  (73) 
DSABPXOZOVGFEE-UHFFFAOYSA-N

>  <Total Molweight>  (73) 
480.599

>  <cLogP>  (73) 
5.2477

>  <cLogS>  (73) 
-5.418

>  <H-Acceptors>  (73) 
6

>  <H-Donors>  (73) 
1

>  <Rotatable Bonds>  (73) 
6

>  <Polar Surface Area>  (73) 
82.06

$$$$
CDB0074
     RDKit          3D

 78 82  0  0  0  0  0  0  0  0999 V2000
   -0.7871    1.7427    2.0129 C   0  0  0  0  0  0  0  0  0  0  0  0
   -0.2910    0.6520    1.0990 C   0  0  0  0  0  0  0  0  0  0  0  0
    0.7985    0.8630    0.3370 C   0  0  0  0  0  0  0  0  0  0  0  0
    1.4735   -0.1614   -0.5369 C   0  0  0  0  0  0  0  0  0  0  0  0
    0.9678   -1.6040   -0.2064 C   0  0  0  0  0  0  0  0  0  0  0  0
    1.6558   -2.7644   -1.0377 C   0  0  0  0  0  0  0  0  0  0  0  0
    0.8751   -4.0862   -0.9128 C   0  0  0  0  0  0  0  0  0  0  0  0
    1.4336   -5.1857   -0.8971 O   0  0  0  0  0  0  0  0  0  0  0  0
   -0.6256   -4.0281   -0.9321 C   0  0  0  0  0  0  0  0  0  0  0  0
   -1.1130   -3.0463    0.1125 C   0  0  0  0  0  0  0  0  0  0  0  0
   -0.6147   -1.6031   -0.1387 C   0  0  0  0  0  0  0  0  0  0  0  0
   -1.0256   -0.6918    1.1040 C   0  0  0  0  0  0  0  0  0  0  0  0
   -2.5601   -0.5510    1.3283 C   0  0  0  0  0  0  0  0  0  0  0  0
   -3.1600    0.2414    0.3046 O   0  0  0  0  0  0  0  0  0  0  0  0
   -4.5049    0.4682    0.3884 C   0  0  0  0  0  0  0  0  0  0  0  0
   -5.3609   -0.0213    1.3720 C   0  0  0  0  0  0  0  0  0  0  0  0
   -6.7173    0.3032    1.3134 C   0  0  0  0  0  0  0  0  0  0  0  0
   -7.2439    1.1022    0.3011 C   0  0  0  0  0  0  0  0  0  0  0  0
   -6.3849    1.5901   -0.6816 C   0  0  0  0  0  0  0  0  0  0  0  0
   -5.0229    1.2719   -0.6344 C   0  0  0  0  0  0  0  0  0  0  0  0
   -8.6663    1.3996    0.3038 C   0  0  0  0  0  0  0  0  0  0  0  0
   -9.4400    0.9024    1.2736 C   0  0  0  0  0  0  0  0  0  0  0  0
   -8.9075    0.0544    2.3546 C   0  0  0  0  0  0  0  0  0  0  0  0
   -9.6471   -0.3849    3.2274 O   0  0  0  0  0  0  0  0  0  0  0  0
   -7.5458   -0.2148    2.3301 O   0  0  0  0  0  0  0  0  0  0  0  0
   -1.2637   -1.0741   -1.4421 C   0  0  0  0  0  0  0  0  0  0  0  0
    1.8172   -2.4783   -2.5391 C   0  0  0  0  0  0  0  0  0  0  0  0
    3.0726   -3.0543   -0.4718 C   0  0  0  0  0  0  0  0  0  0  0  0
    2.8774   -0.0878   -0.2832 O   0  0  0  0  0  0  0  0  0  0  0  0
    3.5996    0.7924   -1.1536 C   0  0  0  0  0  0  0  0  0  0  0  0
    5.0956    0.3696   -1.1410 C   0  0  0  0  0  0  0  0  0  0  0  0
    5.9900    1.5940   -1.3065 C   0  0  0  0  0  0  0  0  0  0  0  0
    5.7365    2.6318   -0.2033 C   0  0  0  0  0  0  0  0  0  0  0  0
    4.2777    2.5511    0.2978 C   0  0  0  0  0  0  0  0  0  0  0  0
    3.4155    2.1624   -0.7831 O   0  0  0  0  0  0  0  0  0  0  0  0
    3.7652    3.8537    0.9192 C   0  0  0  0  0  0  0  0  0  0  0  0
    4.3964    4.1125    2.1706 O   0  0  0  0  0  0  0  0  0  0  0  0
    6.0551    3.9141   -0.7627 O   0  0  0  0  0  0  0  0  0  0  0  0
    7.3752    1.2158   -1.2920 O   0  0  0  0  0  0  0  0  0  0  0  0
    5.4043   -0.5741   -2.1864 O   0  0  0  0  0  0  0  0  0  0  0  0
   -1.7594    2.1196    1.6828 H   0  0  0  0  0  0  0  0  0  0  0  0
   -0.8799    1.3660    3.0367 H   0  0  0  0  0  0  0  0  0  0  0  0
   -0.1015    2.5967    2.0451 H   0  0  0  0  0  0  0  0  0  0  0  0
    1.2542    1.8487    0.3464 H   0  0  0  0  0  0  0  0  0  0  0  0
    1.2596    0.0751   -1.5852 H   0  0  0  0  0  0  0  0  0  0  0  0
    1.2919   -1.8097    0.8283 H   0  0  0  0  0  0  0  0  0  0  0  0
   -1.0147   -5.0254   -0.6960 H   0  0  0  0  0  0  0  0  0  0  0  0
   -0.9646   -3.7790   -1.9412 H   0  0  0  0  0  0  0  0  0  0  0  0
   -0.7781   -3.3824    1.1029 H   0  0  0  0  0  0  0  0  0  0  0  0
   -2.2077   -3.0852    0.1219 H   0  0  0  0  0  0  0  0  0  0  0  0
   -0.6591   -1.2094    2.0045 H   0  0  0  0  0  0  0  0  0  0  0  0
   -2.7358   -0.0820    2.3050 H   0  0  0  0  0  0  0  0  0  0  0  0
   -3.0245   -1.5420    1.3535 H   0  0  0  0  0  0  0  0  0  0  0  0
   -5.0141   -0.6475    2.1856 H   0  0  0  0  0  0  0  0  0  0  0  0
   -6.7555    2.2174   -1.4883 H   0  0  0  0  0  0  0  0  0  0  0  0
   -4.3555    1.6561   -1.4032 H   0  0  0  0  0  0  0  0  0  0  0  0
   -9.0801    2.0219   -0.4820 H   0  0  0  0  0  0  0  0  0  0  0  0
  -10.5044    1.1000    1.3126 H   0  0  0  0  0  0  0  0  0  0  0  0
   -1.1435    0.0063   -1.5645 H   0  0  0  0  0  0  0  0  0  0  0  0
   -0.8530   -1.5412   -2.3356 H   0  0  0  0  0  0  0  0  0  0  0  0
   -2.3379   -1.2873   -1.4639 H   0  0  0  0  0  0  0  0  0  0  0  0
    2.3111   -3.3194   -3.0423 H   0  0  0  0  0  0  0  0  0  0  0  0
    2.4321   -1.5936   -2.7251 H   0  0  0  0  0  0  0  0  0  0  0  0
    0.8629   -2.3458   -3.0497 H   0  0  0  0  0  0  0  0  0  0  0  0
    3.5365   -3.9172   -0.9656 H   0  0  0  0  0  0  0  0  0  0  0  0
    3.0320   -3.2839    0.5991 H   0  0  0  0  0  0  0  0  0  0  0  0
    3.7629   -2.2237   -0.6169 H   0  0  0  0  0  0  0  0  0  0  0  0
    3.2168    0.6800   -2.1745 H   0  0  0  0  0  0  0  0  0  0  0  0
    5.3427   -0.1470   -0.2057 H   0  0  0  0  0  0  0  0  0  0  0  0
    5.8230    2.0358   -2.2974 H   0  0  0  0  0  0  0  0  0  0  0  0
    6.4152    2.4923    0.6466 H   0  0  0  0  0  0  0  0  0  0  0  0
    4.2231    1.7731    1.0724 H   0  0  0  0  0  0  0  0  0  0  0  0
    2.6837    3.7988    1.0878 H   0  0  0  0  0  0  0  0  0  0  0  0
    3.9253    4.7109    0.2577 H   0  0  0  0  0  0  0  0  0  0  0  0
    4.0170    3.4973    2.8212 H   0  0  0  0  0  0  0  0  0  0  0  0
    7.0075    3.8833   -0.9748 H   0  0  0  0  0  0  0  0  0  0  0  0
    7.4250    0.3464   -1.7380 H   0  0  0  0  0  0  0  0  0  0  0  0
    5.1465   -0.1809   -3.0394 H   0  0  0  0  0  0  0  0  0  0  0  0
  1  2  1  0
  2  3  2  0
  3  4  1  0
  4  5  1  0
  5  6  1  0
  6  7  1  0
  7  8  2  0
  7  9  1  0
  9 10  1  0
 10 11  1  0
 11 12  1  0
 12 13  1  0
 13 14  1  0
 14 15  1  0
 15 16  2  0
 16 17  1  0
 17 18  2  0
 18 19  1  0
 19 20  2  0
 18 21  1  0
 21 22  2  0
 22 23  1  0
 23 24  2  0
 23 25  1  0
 11 26  1  0
  6 27  1  0
  6 28  1  0
  4 29  1  0
 29 30  1  0
 30 31  1  0
 31 32  1  0
 32 33  1  0
 33 34  1  0
 34 35  1  0
 34 36  1  0
 36 37  1  0
 33 38  1  0
 32 39  1  0
 31 40  1  0
 12  2  1  0
 11  5  1  0
 20 15  1  0
 25 17  1  0
 35 30  1  0
  1 41  1  0
  1 42  1  0
  1 43  1  0
  3 44  1  0
  4 45  1  0
  5 46  1  0
  9 47  1  0
  9 48  1  0
 10 49  1  0
 10 50  1  0
 12 51  1  0
 13 52  1  0
 13 53  1  0
 16 54  1  0
 19 55  1  0
 20 56  1  0
 21 57  1  0
 22 58  1  0
 26 59  1  0
 26 60  1  0
 26 61  1  0
 27 62  1  0
 27 63  1  0
 27 64  1  0
 28 65  1  0
 28 66  1  0
 28 67  1  0
 30 68  1  0
 31 69  1  0
 32 70  1  0
 33 71  1  0
 34 72  1  0
 36 73  1  0
 36 74  1  0
 37 75  1  0
 38 76  1  0
 39 77  1  0
 40 78  1  0
M  END
>  <Name>  (74) 
Conferoside

>  <PubChem ID>  (74) 
70698299

>  <CDB ID>  (74) 
CDB0074

>  <Smiles>  (74) 
CC1=CC(C2C(C(=O)CCC2(C1COC3=CC4=C(C=C3)C=CC(=O)O4)C)(C)C)OC5C(C(C(C(O5)CO)O)O)O

>  <Chemical class>  (74) 
7-Oxygenated Coumarins

>  <Natural source>  (74) 
Ferula conocaula

>  <Molecular Formula>  (74) 
C30H38O10

>  <InChI-Key>  (74) 
RZYSMVMKUYBYJF-UHFFFAOYSA-N

>  <Total Molweight>  (74) 
558.622

>  <cLogP>  (74) 
1.8067

>  <cLogS>  (74) 
-4.323

>  <H-Acceptors>  (74) 
10

>  <H-Donors>  (74) 
4

>  <Rotatable Bonds>  (74) 
6

>  <Polar Surface Area>  (74) 
151.98

$$$$
CDB0075
     RDKit          3D

 40 42  0  0  0  0  0  0  0  0999 V2000
    4.6710   -2.0991    0.8004 C   0  0  0  0  0  0  0  0  0  0  0  0
    5.0068   -0.9830   -0.0157 O   0  0  0  0  0  0  0  0  0  0  0  0
    3.9990   -0.0950   -0.2927 C   0  0  0  0  0  0  0  0  0  0  0  0
    4.3673    0.9763   -1.1124 C   0  0  0  0  0  0  0  0  0  0  0  0
    3.4549    1.9526   -1.4851 C   0  0  0  0  0  0  0  0  0  0  0  0
    2.1399    1.8682   -1.0277 C   0  0  0  0  0  0  0  0  0  0  0  0
    1.7379    0.8121   -0.1949 C   0  0  0  0  0  0  0  0  0  0  0  0
    2.6806   -0.1731    0.1623 C   0  0  0  0  0  0  0  0  0  0  0  0
    0.3460    0.7391    0.2897 C   0  0  0  0  0  0  0  0  0  0  0  0
    0.0640    0.5044    1.5816 C   0  0  0  0  0  0  0  0  0  0  0  0
   -1.1727    0.3696    2.1542 O   0  0  0  0  0  0  0  0  0  0  0  0
   -2.2833    0.3039    1.2466 C   0  0  0  0  0  0  0  0  0  0  0  0
   -2.5163   -1.1518    0.8029 C   0  0  0  0  0  0  0  0  0  0  0  0
   -3.2043   -1.2696   -0.5610 C   0  0  0  0  0  0  0  0  0  0  0  0
   -4.1161   -0.0732   -0.8514 C   0  0  0  0  0  0  0  0  0  0  0  0
   -3.3604    1.2577   -0.8548 C   0  0  0  0  0  0  0  0  0  0  0  0
   -2.1467    1.2873    0.0903 C   0  0  0  0  0  0  0  0  0  0  0  0
   -0.8311    0.9696   -0.6014 C   0  0  0  0  0  0  0  0  0  0  0  0
   -0.7184    0.9213   -1.8236 O   0  0  0  0  0  0  0  0  0  0  0  0
   -5.1272   -0.0217    0.1643 O   0  0  0  0  0  0  0  0  0  0  0  0
   -3.9998   -2.4600   -0.5751 O   0  0  0  0  0  0  0  0  0  0  0  0
    5.6514    1.0827   -1.5727 O   0  0  0  0  0  0  0  0  0  0  0  0
    4.3501   -1.7769    1.7964 H   0  0  0  0  0  0  0  0  0  0  0  0
    5.5726   -2.7073    0.9216 H   0  0  0  0  0  0  0  0  0  0  0  0
    3.9099   -2.7236    0.3210 H   0  0  0  0  0  0  0  0  0  0  0  0
    3.7632    2.7702   -2.1299 H   0  0  0  0  0  0  0  0  0  0  0  0
    1.4319    2.6362   -1.3335 H   0  0  0  0  0  0  0  0  0  0  0  0
    2.3609   -0.9993    0.7890 H   0  0  0  0  0  0  0  0  0  0  0  0
    0.8227    0.3925    2.3490 H   0  0  0  0  0  0  0  0  0  0  0  0
   -3.1532    0.6108    1.8416 H   0  0  0  0  0  0  0  0  0  0  0  0
   -3.1029   -1.6624    1.5788 H   0  0  0  0  0  0  0  0  0  0  0  0
   -1.5746   -1.7149    0.7721 H   0  0  0  0  0  0  0  0  0  0  0  0
   -2.4580   -1.3600   -1.3585 H   0  0  0  0  0  0  0  0  0  0  0  0
   -4.6453   -0.2089   -1.8012 H   0  0  0  0  0  0  0  0  0  0  0  0
   -4.0505    2.0559   -0.5516 H   0  0  0  0  0  0  0  0  0  0  0  0
   -3.0537    1.4927   -1.8802 H   0  0  0  0  0  0  0  0  0  0  0  0
   -2.0295    2.3115    0.4710 H   0  0  0  0  0  0  0  0  0  0  0  0
   -5.5102   -0.9227    0.1802 H   0  0  0  0  0  0  0  0  0  0  0  0
   -3.3918   -3.2157   -0.4865 H   0  0  0  0  0  0  0  0  0  0  0  0
    6.1156    0.3035   -1.2101 H   0  0  0  0  0  0  0  0  0  0  0  0
  1  2  1  0
  2  3  1  0
  3  4  2  0
  4  5  1  0
  5  6  2  0
  6  7  1  0
  7  8  2  0
  7  9  1  0
  9 10  2  0
 10 11  1  0
 11 12  1  0
 12 13  1  0
 13 14  1  0
 14 15  1  0
 15 16  1  0
 16 17  1  0
 17 18  1  0
 18 19  2  0
 15 20  1  0
 14 21  1  0
  4 22  1  0
  8  3  1  0
 18  9  1  0
 17 12  1  0
  1 23  1  0
  1 24  1  0
  1 25  1  0
  5 26  1  0
  6 27  1  0
  8 28  1  0
 10 29  1  0
 12 30  1  0
 13 31  1  0
 13 32  1  0
 14 33  1  0
 15 34  1  0
 16 35  1  0
 16 36  1  0
 17 37  1  0
 20 38  1  0
 21 39  1  0
 22 40  1  0
M  END
>  <Name>  (75) 
Conferin

>  <PubChem ID>  (75) 
129010563

>  <CDB ID>  (75) 
CDB0075

>  <Smiles>  (75) 
COC1=C(C=CC(=C1)C2=COC3CC(C(CC3C2=O)O)O)O

>  <Chemical class>  (75) 
7-Oxygenated Coumarins

>  <Natural source>  (75) 
Ferula conocaula

>  <Molecular Formula>  (75) 
C16H18O6

>  <InChI-Key>  (75) 
WHYNRUXPRFHLFK-UHFFFAOYSA-N

>  <Total Molweight>  (75) 
306.313

>  <cLogP>  (75) 
0.0322

>  <cLogS>  (75) 
-2.182

>  <H-Acceptors>  (75) 
6

>  <H-Donors>  (75) 
3

>  <Rotatable Bonds>  (75) 
2

>  <Polar Surface Area>  (75) 
96.22

$$$$
CDB0076
     RDKit          3D

 57 60  0  0  0  0  0  0  0  0999 V2000
    0.5279   -3.0016    1.2973 C   0  0  0  0  0  0  0  0  0  0  0  0
   -0.7161   -2.3698    0.7406 C   0  0  0  0  0  0  0  0  0  0  0  0
   -1.8993   -2.5915    1.3315 C   0  0  0  0  0  0  0  0  0  0  0  0
   -3.1192   -2.0297    0.7245 C   0  0  0  0  0  0  0  0  0  0  0  0
   -4.1384   -2.7207    0.7627 O   0  0  0  0  0  0  0  0  0  0  0  0
   -3.0658   -0.6661    0.0065 C   0  0  0  0  0  0  0  0  0  0  0  0
   -4.0074    0.4065    0.6956 C   0  0  0  0  0  0  0  0  0  0  0  0
   -3.2577    1.1476    1.8256 C   0  0  0  0  0  0  0  0  0  0  0  0
   -1.9435    1.7580    1.3558 C   0  0  0  0  0  0  0  0  0  0  0  0
   -0.9897    0.6981    0.8172 C   0  0  0  0  0  0  0  0  0  0  0  0
   -1.5708   -0.2058   -0.3076 C   0  0  0  0  0  0  0  0  0  0  0  0
   -0.6651   -1.4999   -0.5137 C   0  0  0  0  0  0  0  0  0  0  0  0
    0.7648   -1.2657   -1.0798 C   0  0  0  0  0  0  0  0  0  0  0  0
    1.5320   -0.4215   -0.2285 O   0  0  0  0  0  0  0  0  0  0  0  0
    2.8076   -0.1200   -0.6134 C   0  0  0  0  0  0  0  0  0  0  0  0
    3.4892    0.7314    0.2572 C   0  0  0  0  0  0  0  0  0  0  0  0
    4.7981    1.1088   -0.0325 C   0  0  0  0  0  0  0  0  0  0  0  0
    5.4517    0.6560   -1.1747 C   0  0  0  0  0  0  0  0  0  0  0  0
    4.7704   -0.1960   -2.0441 C   0  0  0  0  0  0  0  0  0  0  0  0
    3.4519   -0.5830   -1.7641 C   0  0  0  0  0  0  0  0  0  0  0  0
    6.8181    1.0846   -1.4219 C   0  0  0  0  0  0  0  0  0  0  0  0
    7.4170    1.9028   -0.5512 C   0  0  0  0  0  0  0  0  0  0  0  0
    6.7442    2.3960    0.6640 C   0  0  0  0  0  0  0  0  0  0  0  0
    7.3257    3.1470    1.4384 O   0  0  0  0  0  0  0  0  0  0  0  0
    5.4402    1.9709    0.8777 O   0  0  0  0  0  0  0  0  0  0  0  0
   -1.5463    0.5925   -1.6369 C   0  0  0  0  0  0  0  0  0  0  0  0
   -2.9735    0.2356    2.8879 O   0  0  0  0  0  0  0  0  0  0  0  0
   -5.2962   -0.2224    1.2957 C   0  0  0  0  0  0  0  0  0  0  0  0
   -4.5398    1.4286   -0.3422 C   0  0  0  0  0  0  0  0  0  0  0  0
    0.9949   -3.6577    0.5568 H   0  0  0  0  0  0  0  0  0  0  0  0
    1.2473   -2.2391    1.6086 H   0  0  0  0  0  0  0  0  0  0  0  0
    0.3133   -3.6162    2.1789 H   0  0  0  0  0  0  0  0  0  0  0  0
   -2.0382   -3.2373    2.1894 H   0  0  0  0  0  0  0  0  0  0  0  0
   -3.5149   -0.9083   -0.9702 H   0  0  0  0  0  0  0  0  0  0  0  0
   -3.8957    1.9375    2.2407 H   0  0  0  0  0  0  0  0  0  0  0  0
   -2.1111    2.5361    0.6053 H   0  0  0  0  0  0  0  0  0  0  0  0
   -1.4514    2.2520    2.2034 H   0  0  0  0  0  0  0  0  0  0  0  0
   -0.6532    0.0900    1.6647 H   0  0  0  0  0  0  0  0  0  0  0  0
   -0.0974    1.2236    0.4587 H   0  0  0  0  0  0  0  0  0  0  0  0
   -1.1530   -2.1016   -1.2985 H   0  0  0  0  0  0  0  0  0  0  0  0
    0.6896   -0.8199   -2.0784 H   0  0  0  0  0  0  0  0  0  0  0  0
    1.2691   -2.2329   -1.1980 H   0  0  0  0  0  0  0  0  0  0  0  0
    3.0018    1.0983    1.1560 H   0  0  0  0  0  0  0  0  0  0  0  0
    5.2513   -0.5694   -2.9452 H   0  0  0  0  0  0  0  0  0  0  0  0
    2.9592   -1.2481   -2.4661 H   0  0  0  0  0  0  0  0  0  0  0  0
    7.3329    0.7343   -2.3096 H   0  0  0  0  0  0  0  0  0  0  0  0
    8.4339    2.2464   -0.6967 H   0  0  0  0  0  0  0  0  0  0  0  0
   -2.1632    1.4873   -1.6103 H   0  0  0  0  0  0  0  0  0  0  0  0
   -1.8929   -0.0245   -2.4734 H   0  0  0  0  0  0  0  0  0  0  0  0
   -0.5393    0.9480   -1.8783 H   0  0  0  0  0  0  0  0  0  0  0  0
   -2.5942    0.7488    3.6225 H   0  0  0  0  0  0  0  0  0  0  0  0
   -5.9597    0.5524    1.6998 H   0  0  0  0  0  0  0  0  0  0  0  0
   -5.8621   -0.7666    0.5311 H   0  0  0  0  0  0  0  0  0  0  0  0
   -5.0898   -0.9035    2.1271 H   0  0  0  0  0  0  0  0  0  0  0  0
   -5.3351    2.0486    0.0903 H   0  0  0  0  0  0  0  0  0  0  0  0
   -3.7878    2.1319   -0.6944 H   0  0  0  0  0  0  0  0  0  0  0  0
   -4.9646    0.9194   -1.2145 H   0  0  0  0  0  0  0  0  0  0  0  0
  1  2  1  0
  2  3  2  0
  3  4  1  0
  4  5  2  0
  4  6  1  0
  6  7  1  0
  7  8  1  0
  8  9  1  0
  9 10  1  0
 10 11  1  0
 11 12  1  0
 12 13  1  0
 13 14  1  0
 14 15  1  0
 15 16  2  0
 16 17  1  0
 17 18  2  0
 18 19  1  0
 19 20  2  0
 18 21  1  0
 21 22  2  0
 22 23  1  0
 23 24  2  0
 23 25  1  0
 11 26  1  0
  8 27  1  0
  7 28  1  0
  7 29  1  0
 12  2  1  0
 11  6  1  0
 20 15  1  0
 25 17  1  0
  1 30  1  0
  1 31  1  0
  1 32  1  0
  3 33  1  0
  6 34  1  0
  8 35  1  0
  9 36  1  0
  9 37  1  0
 10 38  1  0
 10 39  1  0
 12 40  1  0
 13 41  1  0
 13 42  1  0
 16 43  1  0
 19 44  1  0
 20 45  1  0
 21 46  1  0
 22 47  1  0
 26 48  1  0
 26 49  1  0
 26 50  1  0
 27 51  1  0
 28 52  1  0
 28 53  1  0
 28 54  1  0
 29 55  1  0
 29 56  1  0
 29 57  1  0
M  END
>  <Name>  (76) 
Ferocaulidin

>  <PubChem ID>  (76) 
14865892

>  <CDB ID>  (76) 
CDB0076

>  <Smiles>  (76) 
CC1=CC(=O)C2C(C(CCC2(C1COC3=CC4=C(C=C3)C=CC(=O)O4)C)O)(C)C

>  <Chemical class>  (76) 
7-Oxygenated Coumarins

>  <Natural source>  (76) 
Ferula conocaula

>  <Molecular Formula>  (76) 
C24H28O5

>  <InChI-Key>  (76) 
HIQLOIOGTRDMIW-UHFFFAOYSA-N

>  <Total Molweight>  (76) 
396.481

>  <cLogP>  (76) 
3.6438

>  <cLogS>  (76) 
-4.623

>  <H-Acceptors>  (76) 
5

>  <H-Donors>  (76) 
1

>  <Rotatable Bonds>  (76) 
3

>  <Polar Surface Area>  (76) 
72.83

$$$$
CDB0077
     RDKit          3D

 55 58  0  0  0  0  0  0  0  0999 V2000
   -0.0138    3.1102    0.1274 C   0  0  0  0  0  0  0  0  0  0  0  0
   -1.0381    2.0097    0.2479 C   0  0  0  0  0  0  0  0  0  0  0  0
   -2.2219    2.2867    0.8288 C   0  0  0  0  0  0  0  0  0  0  0  0
   -3.3163    1.2829    0.8407 C   0  0  0  0  0  0  0  0  0  0  0  0
   -4.2756    1.4430    1.5839 O   0  0  0  0  0  0  0  0  0  0  0  0
   -3.1540    0.1349   -0.1418 C   0  0  0  0  0  0  0  0  0  0  0  0
   -4.3471   -0.8500   -0.2981 C   0  0  0  0  0  0  0  0  0  0  0  0
   -4.0005   -1.8267   -1.4360 C   0  0  0  0  0  0  0  0  0  0  0  0
   -4.8395   -2.5824   -1.9288 O   0  0  0  0  0  0  0  0  0  0  0  0
   -2.5806   -1.8205   -1.9629 C   0  0  0  0  0  0  0  0  0  0  0  0
   -1.5962   -1.7694   -0.8025 C   0  0  0  0  0  0  0  0  0  0  0  0
   -1.7353   -0.4905    0.0773 C   0  0  0  0  0  0  0  0  0  0  0  0
   -0.6803    0.6233   -0.3440 C   0  0  0  0  0  0  0  0  0  0  0  0
    0.7823    0.2119   -0.0025 C   0  0  0  0  0  0  0  0  0  0  0  0
    1.6722    0.8891   -0.8981 O   0  0  0  0  0  0  0  0  0  0  0  0
    3.0127    0.6854   -0.7235 C   0  0  0  0  0  0  0  0  0  0  0  0
    3.5997   -0.1412    0.2317 C   0  0  0  0  0  0  0  0  0  0  0  0
    4.9912   -0.2409    0.2796 C   0  0  0  0  0  0  0  0  0  0  0  0
    5.8140    0.4606   -0.5987 C   0  0  0  0  0  0  0  0  0  0  0  0
    5.2237    1.2861   -1.5536 C   0  0  0  0  0  0  0  0  0  0  0  0
    3.8296    1.3948   -1.6123 C   0  0  0  0  0  0  0  0  0  0  0  0
    7.2551    0.3082   -0.4905 C   0  0  0  0  0  0  0  0  0  0  0  0
    7.7624   -0.4992    0.4460 C   0  0  0  0  0  0  0  0  0  0  0  0
    6.9138   -1.2520    1.3864 C   0  0  0  0  0  0  0  0  0  0  0  0
    7.4137   -1.9837    2.2327 O   0  0  0  0  0  0  0  0  0  0  0  0
    5.5405   -1.0894    1.2628 O   0  0  0  0  0  0  0  0  0  0  0  0
   -1.4735   -0.9024    1.5539 C   0  0  0  0  0  0  0  0  0  0  0  0
   -5.6158   -0.0872   -0.7405 C   0  0  0  0  0  0  0  0  0  0  0  0
   -4.6729   -1.6896    0.9417 C   0  0  0  0  0  0  0  0  0  0  0  0
   -0.4137    4.0795    0.4459 H   0  0  0  0  0  0  0  0  0  0  0  0
    0.8611    2.9022    0.7502 H   0  0  0  0  0  0  0  0  0  0  0  0
    0.3036    3.2215   -0.9144 H   0  0  0  0  0  0  0  0  0  0  0  0
   -2.4612    3.2470    1.2723 H   0  0  0  0  0  0  0  0  0  0  0  0
   -3.1191    0.6540   -1.1167 H   0  0  0  0  0  0  0  0  0  0  0  0
   -2.4518   -0.9749   -2.6458 H   0  0  0  0  0  0  0  0  0  0  0  0
   -2.4202   -2.7410   -2.5352 H   0  0  0  0  0  0  0  0  0  0  0  0
   -0.5843   -1.8707   -1.2062 H   0  0  0  0  0  0  0  0  0  0  0  0
   -1.7628   -2.6623   -0.1847 H   0  0  0  0  0  0  0  0  0  0  0  0
   -0.7421    0.7451   -1.4359 H   0  0  0  0  0  0  0  0  0  0  0  0
    0.9255   -0.8643   -0.1357 H   0  0  0  0  0  0  0  0  0  0  0  0
    1.0148    0.4779    1.0366 H   0  0  0  0  0  0  0  0  0  0  0  0
    3.0167   -0.7144    0.9432 H   0  0  0  0  0  0  0  0  0  0  0  0
    5.8302    1.8500   -2.2577 H   0  0  0  0  0  0  0  0  0  0  0  0
    3.3742    2.0406   -2.3603 H   0  0  0  0  0  0  0  0  0  0  0  0
    7.8993    0.8525   -1.1723 H   0  0  0  0  0  0  0  0  0  0  0  0
    8.8303   -0.6408    0.5603 H   0  0  0  0  0  0  0  0  0  0  0  0
   -0.5264   -1.4452    1.6508 H   0  0  0  0  0  0  0  0  0  0  0  0
   -2.2440   -1.5670    1.9452 H   0  0  0  0  0  0  0  0  0  0  0  0
   -1.4191   -0.0434    2.2295 H   0  0  0  0  0  0  0  0  0  0  0  0
   -5.4245    0.5124   -1.6381 H   0  0  0  0  0  0  0  0  0  0  0  0
   -5.9906    0.5797    0.0408 H   0  0  0  0  0  0  0  0  0  0  0  0
   -6.4327   -0.7757   -0.9882 H   0  0  0  0  0  0  0  0  0  0  0  0
   -3.9467   -2.4937    1.0943 H   0  0  0  0  0  0  0  0  0  0  0  0
   -4.7218   -1.0830    1.8501 H   0  0  0  0  0  0  0  0  0  0  0  0
   -5.6443   -2.1876    0.8322 H   0  0  0  0  0  0  0  0  0  0  0  0
  1  2  1  0
  2  3  2  0
  3  4  1  0
  4  5  2  0
  4  6  1  0
  6  7  1  0
  7  8  1  0
  8  9  2  0
  8 10  1  0
 10 11  1  0
 11 12  1  0
 12 13  1  0
 13 14  1  0
 14 15  1  0
 15 16  1  0
 16 17  2  0
 17 18  1  0
 18 19  2  0
 19 20  1  0
 20 21  2  0
 19 22  1  0
 22 23  2  0
 23 24  1  0
 24 25  2  0
 24 26  1  0
 12 27  1  0
  7 28  1  0
  7 29  1  0
 13  2  1  0
 12  6  1  0
 21 16  1  0
 26 18  1  0
  1 30  1  0
  1 31  1  0
  1 32  1  0
  3 33  1  0
  6 34  1  0
 10 35  1  0
 10 36  1  0
 11 37  1  0
 11 38  1  0
 13 39  1  0
 14 40  1  0
 14 41  1  0
 17 42  1  0
 20 43  1  0
 21 44  1  0
 22 45  1  0
 23 46  1  0
 27 47  1  0
 27 48  1  0
 27 49  1  0
 28 50  1  0
 28 51  1  0
 28 52  1  0
 29 53  1  0
 29 54  1  0
 29 55  1  0
M  END
>  <Name>  (77) 
Conferdione

>  <PubChem ID>  (77) 
5179580

>  <CDB ID>  (77) 
CDB0077

>  <Smiles>  (77) 
CC1=CC(=O)C2C(C(=O)CCC2(C1COC3=CC4=C(C=C3)C=CC(=O)O4)C)(C)C

>  <Chemical class>  (77) 
7-Oxygenated Coumarins

>  <Natural source>  (77) 
Ferula conocaula

>  <Molecular Formula>  (77) 
C24H26O5

>  <InChI-Key>  (77) 
DXVHSOMRFHJYQX-UHFFFAOYSA-N

>  <Total Molweight>  (77) 
394.465

>  <cLogP>  (77) 
3.7875

>  <cLogS>  (77) 
-4.674

>  <H-Acceptors>  (77) 
5

>  <H-Donors>  (77) 
0

>  <Rotatable Bonds>  (77) 
3

>  <Polar Surface Area>  (77) 
69.67

$$$$
CDB0078
     RDKit          3D

 58 61  0  0  0  0  0  0  0  0999 V2000
   -3.7616   -0.1079   -2.9497 C   0  0  0  0  0  0  0  0  0  0  0  0
   -3.4466   -0.7004   -1.5471 C   0  0  0  0  0  0  0  0  0  0  0  0
   -1.9279   -0.4886   -1.1598 C   0  0  0  0  0  0  0  0  0  0  0  0
   -1.3914    0.9399   -1.4516 C   0  0  0  0  0  0  0  0  0  0  0  0
   -1.4821    1.9365   -0.3047 C   0  0  0  0  0  0  0  0  0  0  0  0
   -0.9914    1.3890    1.0041 C   0  0  0  0  0  0  0  0  0  0  0  0
   -1.0182    2.1514    2.1111 C   0  0  0  0  0  0  0  0  0  0  0  0
   -0.5137   -0.0557    1.0339 C   0  0  0  0  0  0  0  0  0  0  0  0
   -1.5531   -0.9978    0.2952 C   0  0  0  0  0  0  0  0  0  0  0  0
   -2.8164   -1.1536    1.2064 C   0  0  0  0  0  0  0  0  0  0  0  0
   -3.9537   -0.1730    0.9563 C   0  0  0  0  0  0  0  0  0  0  0  0
   -4.3753   -0.0220   -0.5069 C   0  0  0  0  0  0  0  0  0  0  0  0
   -5.7179   -0.4994   -0.6286 O   0  0  0  0  0  0  0  0  0  0  0  0
   -0.9306   -2.4185    0.1858 C   0  0  0  0  0  0  0  0  0  0  0  0
    0.9650   -0.1773    0.5689 C   0  0  0  0  0  0  0  0  0  0  0  0
    1.7948    0.6342    1.4130 O   0  0  0  0  0  0  0  0  0  0  0  0
    3.1281    0.6890    1.1179 C   0  0  0  0  0  0  0  0  0  0  0  0
    3.7792   -0.0365    0.1230 C   0  0  0  0  0  0  0  0  0  0  0  0
    5.1540    0.1323   -0.0501 C   0  0  0  0  0  0  0  0  0  0  0  0
    5.8979    1.0032    0.7430 C   0  0  0  0  0  0  0  0  0  0  0  0
    5.2441    1.7255    1.7393 C   0  0  0  0  0  0  0  0  0  0  0  0
    3.8661    1.5653    1.9227 C   0  0  0  0  0  0  0  0  0  0  0  0
    7.3263    1.1285    0.5064 C   0  0  0  0  0  0  0  0  0  0  0  0
    7.8974    0.4087   -0.4641 C   0  0  0  0  0  0  0  0  0  0  0  0
    7.1326   -0.5187   -1.3164 C   0  0  0  0  0  0  0  0  0  0  0  0
    7.6902   -1.1621   -2.1980 O   0  0  0  0  0  0  0  0  0  0  0  0
    5.7703   -0.6215   -1.0702 O   0  0  0  0  0  0  0  0  0  0  0  0
   -3.7680   -2.2129   -1.6979 C   0  0  0  0  0  0  0  0  0  0  0  0
   -3.0164   -0.4277   -3.6869 H   0  0  0  0  0  0  0  0  0  0  0  0
   -4.7422   -0.4332   -3.3165 H   0  0  0  0  0  0  0  0  0  0  0  0
   -3.7920    0.9861   -2.9417 H   0  0  0  0  0  0  0  0  0  0  0  0
   -1.3683   -1.1127   -1.8736 H   0  0  0  0  0  0  0  0  0  0  0  0
   -0.3392    0.8508   -1.7467 H   0  0  0  0  0  0  0  0  0  0  0  0
   -1.8513    1.3850   -2.3366 H   0  0  0  0  0  0  0  0  0  0  0  0
   -2.5189    2.2727   -0.1972 H   0  0  0  0  0  0  0  0  0  0  0  0
   -0.8911    2.8223   -0.5703 H   0  0  0  0  0  0  0  0  0  0  0  0
   -1.3730    3.1772    2.0852 H   0  0  0  0  0  0  0  0  0  0  0  0
   -0.6739    1.7733    3.0693 H   0  0  0  0  0  0  0  0  0  0  0  0
   -0.4892   -0.3677    2.0896 H   0  0  0  0  0  0  0  0  0  0  0  0
   -3.2285   -2.1653    1.1216 H   0  0  0  0  0  0  0  0  0  0  0  0
   -2.5299   -1.0863    2.2644 H   0  0  0  0  0  0  0  0  0  0  0  0
   -3.6611    0.8097    1.3404 H   0  0  0  0  0  0  0  0  0  0  0  0
   -4.8115   -0.4706    1.5733 H   0  0  0  0  0  0  0  0  0  0  0  0
   -4.4306    1.0542   -0.7118 H   0  0  0  0  0  0  0  0  0  0  0  0
   -6.0496   -0.2366   -1.5033 H   0  0  0  0  0  0  0  0  0  0  0  0
   -0.5826   -2.7703    1.1640 H   0  0  0  0  0  0  0  0  0  0  0  0
   -0.0822   -2.4388   -0.5064 H   0  0  0  0  0  0  0  0  0  0  0  0
   -1.6469   -3.1569   -0.1851 H   0  0  0  0  0  0  0  0  0  0  0  0
    1.2997   -1.2135    0.6828 H   0  0  0  0  0  0  0  0  0  0  0  0
    1.0872    0.1274   -0.4725 H   0  0  0  0  0  0  0  0  0  0  0  0
    3.2577   -0.7328   -0.5231 H   0  0  0  0  0  0  0  0  0  0  0  0
    5.7876    2.4149    2.3801 H   0  0  0  0  0  0  0  0  0  0  0  0
    3.3581    2.1314    2.7009 H   0  0  0  0  0  0  0  0  0  0  0  0
    7.9086    1.8051    1.1219 H   0  0  0  0  0  0  0  0  0  0  0  0
    8.9583    0.4724   -0.6732 H   0  0  0  0  0  0  0  0  0  0  0  0
   -3.7874   -2.7520   -0.7518 H   0  0  0  0  0  0  0  0  0  0  0  0
   -4.7534   -2.3720   -2.1524 H   0  0  0  0  0  0  0  0  0  0  0  0
   -3.0360   -2.7038   -2.3495 H   0  0  0  0  0  0  0  0  0  0  0  0
  1  2  1  0
  2  3  1  0
  3  4  1  0
  4  5  1  0
  5  6  1  0
  6  7  2  0
  6  8  1  0
  8  9  1  0
  9 10  1  0
 10 11  1  0
 11 12  1  0
 12 13  1  0
  9 14  1  0
  8 15  1  0
 15 16  1  0
 16 17  1  0
 17 18  2  0
 18 19  1  0
 19 20  2  0
 20 21  1  0
 21 22  2  0
 20 23  1  0
 23 24  2  0
 24 25  1  0
 25 26  2  0
 25 27  1  0
  2 28  1  0
 12  2  1  0
  9  3  1  0
 22 17  1  0
 27 19  1  0
  1 29  1  0
  1 30  1  0
  1 31  1  0
  3 32  1  0
  4 33  1  0
  4 34  1  0
  5 35  1  0
  5 36  1  0
  7 37  1  0
  7 38  1  0
  8 39  1  0
 10 40  1  0
 10 41  1  0
 11 42  1  0
 11 43  1  0
 12 44  1  0
 13 45  1  0
 14 46  1  0
 14 47  1  0
 14 48  1  0
 15 49  1  0
 15 50  1  0
 18 51  1  0
 21 52  1  0
 22 53  1  0
 23 54  1  0
 24 55  1  0
 28 56  1  0
 28 57  1  0
 28 58  1  0
M  END
>  <Name>  (78) 
Colladonin

>  <PubChem ID>  (78) 
375430

>  <CDB ID>  (78) 
CDB0078

>  <Smiles>  (78) 
CC1(C2CCC(=C)C(C2(CCC1O)C)COC3=CC4=C(C=C3)C=CC(=O)O4)C

>  <Chemical class>  (78) 
7-Oxygenated Coumarins

>  <Natural source>  (78) 
Colladonia triquetra

>  <Molecular Formula>  (78) 
C24H30O4

>  <InChI-Key>  (78) 
FCWYNTDTQPCVPG-UHFFFAOYSA-N

>  <Total Molweight>  (78) 
382.498

>  <cLogP>  (78) 
4.4305

>  <cLogS>  (78) 
-5.138

>  <H-Acceptors>  (78) 
4

>  <H-Donors>  (78) 
1

>  <Rotatable Bonds>  (78) 
3

>  <Polar Surface Area>  (78) 
55.76

$$$$
CDB0079
     RDKit          3D

 63 66  0  0  0  0  0  0  0  0999 V2000
   -5.5045    3.4780    1.2499 C   0  0  0  0  0  0  0  0  0  0  0  0
   -4.6105    2.6569    0.3723 C   0  0  0  0  0  0  0  0  0  0  0  0
   -4.5189    2.7929   -0.8390 O   0  0  0  0  0  0  0  0  0  0  0  0
   -3.9283    1.7530    1.1268 O   0  0  0  0  0  0  0  0  0  0  0  0
   -3.0190    0.8751    0.4261 C   0  0  0  0  0  0  0  0  0  0  0  0
   -1.6869    1.5825    0.2234 C   0  0  0  0  0  0  0  0  0  0  0  0
   -0.6863    0.7617   -0.5922 C   0  0  0  0  0  0  0  0  0  0  0  0
   -0.8191   -0.7895   -0.4971 C   0  0  0  0  0  0  0  0  0  0  0  0
   -1.4480   -1.1382    0.9081 C   0  0  0  0  0  0  0  0  0  0  0  0
   -2.8379   -0.4516    1.2318 C   0  0  0  0  0  0  0  0  0  0  0  0
   -2.8778   -0.1671    2.7605 C   0  0  0  0  0  0  0  0  0  0  0  0
   -4.0576   -1.3559    0.9364 C   0  0  0  0  0  0  0  0  0  0  0  0
   -1.4363   -2.6547    1.2049 C   0  0  0  0  0  0  0  0  0  0  0  0
   -0.0367   -3.2479    1.0873 C   0  0  0  0  0  0  0  0  0  0  0  0
    0.5344   -2.9616   -0.2771 C   0  0  0  0  0  0  0  0  0  0  0  0
    0.8901   -3.9760   -1.0847 C   0  0  0  0  0  0  0  0  0  0  0  0
    0.6252   -1.4655   -0.6035 C   0  0  0  0  0  0  0  0  0  0  0  0
    1.4135   -1.1785   -1.9154 C   0  0  0  0  0  0  0  0  0  0  0  0
    1.7173    0.2032   -2.1127 O   0  0  0  0  0  0  0  0  0  0  0  0
    2.8790    0.7045   -1.5959 C   0  0  0  0  0  0  0  0  0  0  0  0
    3.7602    0.0420   -0.7450 C   0  0  0  0  0  0  0  0  0  0  0  0
    4.9006    0.7094   -0.2945 C   0  0  0  0  0  0  0  0  0  0  0  0
    5.1862    2.0210   -0.6669 C   0  0  0  0  0  0  0  0  0  0  0  0
    4.3006    2.6837   -1.5138 C   0  0  0  0  0  0  0  0  0  0  0  0
    3.1534    2.0257   -1.9713 C   0  0  0  0  0  0  0  0  0  0  0  0
    6.3922    2.6530   -0.1594 C   0  0  0  0  0  0  0  0  0  0  0  0
    7.2010    1.9675    0.6542 C   0  0  0  0  0  0  0  0  0  0  0  0
    6.9199    0.5807    1.0655 C   0  0  0  0  0  0  0  0  0  0  0  0
    7.6839   -0.0161    1.8153 O   0  0  0  0  0  0  0  0  0  0  0  0
    5.7628   -0.0013    0.5661 O   0  0  0  0  0  0  0  0  0  0  0  0
   -1.6960   -1.3056   -1.6664 C   0  0  0  0  0  0  0  0  0  0  0  0
   -4.9043    4.0286    1.9785 H   0  0  0  0  0  0  0  0  0  0  0  0
   -6.0541    4.1972    0.6359 H   0  0  0  0  0  0  0  0  0  0  0  0
   -6.2249    2.8297    1.7552 H   0  0  0  0  0  0  0  0  0  0  0  0
   -3.4566    0.6491   -0.5516 H   0  0  0  0  0  0  0  0  0  0  0  0
   -1.2515    1.8243    1.2019 H   0  0  0  0  0  0  0  0  0  0  0  0
   -1.8319    2.5567   -0.2592 H   0  0  0  0  0  0  0  0  0  0  0  0
   -0.7500    1.0749   -1.6419 H   0  0  0  0  0  0  0  0  0  0  0  0
    0.3030    1.0758   -0.2402 H   0  0  0  0  0  0  0  0  0  0  0  0
   -0.7359   -0.7060    1.6312 H   0  0  0  0  0  0  0  0  0  0  0  0
   -2.7044   -1.0783    3.3427 H   0  0  0  0  0  0  0  0  0  0  0  0
   -3.8499    0.2278    3.0767 H   0  0  0  0  0  0  0  0  0  0  0  0
   -2.1124    0.5605    3.0514 H   0  0  0  0  0  0  0  0  0  0  0  0
   -4.0807   -2.2366    1.5872 H   0  0  0  0  0  0  0  0  0  0  0  0
   -4.9966   -0.8150    1.1046 H   0  0  0  0  0  0  0  0  0  0  0  0
   -4.0664   -1.7070   -0.0988 H   0  0  0  0  0  0  0  0  0  0  0  0
   -1.8000   -2.8453    2.2208 H   0  0  0  0  0  0  0  0  0  0  0  0
   -2.1104   -3.1867    0.5231 H   0  0  0  0  0  0  0  0  0  0  0  0
   -0.0866   -4.3250    1.2871 H   0  0  0  0  0  0  0  0  0  0  0  0
    0.6215   -2.8191    1.8530 H   0  0  0  0  0  0  0  0  0  0  0  0
    0.7825   -5.0106   -0.7681 H   0  0  0  0  0  0  0  0  0  0  0  0
    1.2852   -3.8318   -2.0841 H   0  0  0  0  0  0  0  0  0  0  0  0
    1.2223   -1.0228    0.2073 H   0  0  0  0  0  0  0  0  0  0  0  0
    0.8224   -1.4882   -2.7837 H   0  0  0  0  0  0  0  0  0  0  0  0
    2.3309   -1.7764   -1.9810 H   0  0  0  0  0  0  0  0  0  0  0  0
    3.5921   -0.9742   -0.4080 H   0  0  0  0  0  0  0  0  0  0  0  0
    4.4844    3.7083   -1.8264 H   0  0  0  0  0  0  0  0  0  0  0  0
    2.4628    2.5484   -2.6303 H   0  0  0  0  0  0  0  0  0  0  0  0
    6.6187    3.6732   -0.4489 H   0  0  0  0  0  0  0  0  0  0  0  0
    8.1093    2.4012    1.0545 H   0  0  0  0  0  0  0  0  0  0  0  0
   -1.2743   -1.0243   -2.6366 H   0  0  0  0  0  0  0  0  0  0  0  0
   -2.7048   -0.8951   -1.6594 H   0  0  0  0  0  0  0  0  0  0  0  0
   -1.7958   -2.3950   -1.6580 H   0  0  0  0  0  0  0  0  0  0  0  0
  1  2  1  0
  2  3  2  0
  2  4  1  0
  4  5  1  0
  5  6  1  0
  6  7  1  0
  7  8  1  0
  8  9  1  0
  9 10  1  0
 10 11  1  0
 10 12  1  0
  9 13  1  0
 13 14  1  0
 14 15  1  0
 15 16  2  0
 15 17  1  0
 17 18  1  0
 18 19  1  0
 19 20  1  0
 20 21  2  0
 21 22  1  0
 22 23  2  0
 23 24  1  0
 24 25  2  0
 23 26  1  0
 26 27  2  0
 27 28  1  0
 28 29  2  0
 28 30  1  0
  8 31  1  0
 10  5  1  0
 17  8  1  0
 25 20  1  0
 30 22  1  0
  1 32  1  0
  1 33  1  0
  1 34  1  0
  5 35  1  0
  6 36  1  0
  6 37  1  0
  7 38  1  0
  7 39  1  0
  9 40  1  0
 11 41  1  0
 11 42  1  0
 11 43  1  0
 12 44  1  0
 12 45  1  0
 12 46  1  0
 13 47  1  0
 13 48  1  0
 14 49  1  0
 14 50  1  0
 16 51  1  0
 16 52  1  0
 17 53  1  0
 18 54  1  0
 18 55  1  0
 21 56  1  0
 24 57  1  0
 25 58  1  0
 26 59  1  0
 27 60  1  0
 31 61  1  0
 31 62  1  0
 31 63  1  0
M  END
>  <Name>  (79) 
Colladin

>  <PubChem ID>  (79) 
1765141

>  <CDB ID>  (79) 
CDB0079

>  <Smiles>  (79) 
CC(=O)OC1CCC2(C(C1(C)C)CCC(=C)C2COC3=CC4=C(C=C3)C=CC(=O)O4)C

>  <Chemical class>  (79) 
7-Oxygenated Coumarins

>  <Natural source>  (79) 
Colladonia triquetra

>  <Molecular Formula>  (79) 
C26H32O5

>  <InChI-Key>  (79) 
MNGYOFNIAOWXIT-UHFFFAOYSA-N

>  <Total Molweight>  (79) 
424.535

>  <cLogP>  (79) 
4.9151

>  <cLogS>  (79) 
-5.548

>  <H-Acceptors>  (79) 
5

>  <H-Donors>  (79) 
0

>  <Rotatable Bonds>  (79) 
5

>  <Polar Surface Area>  (79) 
61.83

$$$$
CDB0080
     RDKit          3D

 63 66  0  0  0  0  0  0  0  0999 V2000
   -5.5045    3.4780    1.2499 C   0  0  0  0  0  0  0  0  0  0  0  0
   -4.6105    2.6569    0.3723 C   0  0  0  0  0  0  0  0  0  0  0  0
   -4.5189    2.7929   -0.8390 O   0  0  0  0  0  0  0  0  0  0  0  0
   -3.9283    1.7530    1.1268 O   0  0  0  0  0  0  0  0  0  0  0  0
   -3.0190    0.8751    0.4261 C   0  0  0  0  0  0  0  0  0  0  0  0
   -1.6869    1.5825    0.2234 C   0  0  0  0  0  0  0  0  0  0  0  0
   -0.6863    0.7617   -0.5922 C   0  0  0  0  0  0  0  0  0  0  0  0
   -0.8191   -0.7895   -0.4971 C   0  0  0  0  0  0  0  0  0  0  0  0
   -1.4480   -1.1382    0.9081 C   0  0  0  0  0  0  0  0  0  0  0  0
   -2.8379   -0.4516    1.2318 C   0  0  0  0  0  0  0  0  0  0  0  0
   -2.8778   -0.1671    2.7605 C   0  0  0  0  0  0  0  0  0  0  0  0
   -4.0576   -1.3559    0.9364 C   0  0  0  0  0  0  0  0  0  0  0  0
   -1.4363   -2.6547    1.2049 C   0  0  0  0  0  0  0  0  0  0  0  0
   -0.0367   -3.2479    1.0873 C   0  0  0  0  0  0  0  0  0  0  0  0
    0.5344   -2.9616   -0.2771 C   0  0  0  0  0  0  0  0  0  0  0  0
    0.8901   -3.9760   -1.0847 C   0  0  0  0  0  0  0  0  0  0  0  0
    0.6252   -1.4655   -0.6035 C   0  0  0  0  0  0  0  0  0  0  0  0
    1.4135   -1.1785   -1.9154 C   0  0  0  0  0  0  0  0  0  0  0  0
    1.7173    0.2032   -2.1127 O   0  0  0  0  0  0  0  0  0  0  0  0
    2.8790    0.7045   -1.5959 C   0  0  0  0  0  0  0  0  0  0  0  0
    3.7602    0.0420   -0.7450 C   0  0  0  0  0  0  0  0  0  0  0  0
    4.9006    0.7094   -0.2945 C   0  0  0  0  0  0  0  0  0  0  0  0
    5.1862    2.0210   -0.6669 C   0  0  0  0  0  0  0  0  0  0  0  0
    4.3006    2.6837   -1.5138 C   0  0  0  0  0  0  0  0  0  0  0  0
    3.1534    2.0257   -1.9713 C   0  0  0  0  0  0  0  0  0  0  0  0
    6.3922    2.6530   -0.1594 C   0  0  0  0  0  0  0  0  0  0  0  0
    7.2010    1.9675    0.6542 C   0  0  0  0  0  0  0  0  0  0  0  0
    6.9199    0.5807    1.0655 C   0  0  0  0  0  0  0  0  0  0  0  0
    7.6839   -0.0161    1.8153 O   0  0  0  0  0  0  0  0  0  0  0  0
    5.7628   -0.0013    0.5661 O   0  0  0  0  0  0  0  0  0  0  0  0
   -1.6960   -1.3056   -1.6664 C   0  0  0  0  0  0  0  0  0  0  0  0
   -4.9043    4.0286    1.9785 H   0  0  0  0  0  0  0  0  0  0  0  0
   -6.0541    4.1972    0.6359 H   0  0  0  0  0  0  0  0  0  0  0  0
   -6.2249    2.8297    1.7552 H   0  0  0  0  0  0  0  0  0  0  0  0
   -3.4566    0.6491   -0.5516 H   0  0  0  0  0  0  0  0  0  0  0  0
   -1.2515    1.8243    1.2019 H   0  0  0  0  0  0  0  0  0  0  0  0
   -1.8319    2.5567   -0.2592 H   0  0  0  0  0  0  0  0  0  0  0  0
   -0.7500    1.0749   -1.6419 H   0  0  0  0  0  0  0  0  0  0  0  0
    0.3030    1.0758   -0.2402 H   0  0  0  0  0  0  0  0  0  0  0  0
   -0.7359   -0.7060    1.6312 H   0  0  0  0  0  0  0  0  0  0  0  0
   -2.7044   -1.0783    3.3427 H   0  0  0  0  0  0  0  0  0  0  0  0
   -3.8499    0.2278    3.0767 H   0  0  0  0  0  0  0  0  0  0  0  0
   -2.1124    0.5605    3.0514 H   0  0  0  0  0  0  0  0  0  0  0  0
   -4.0807   -2.2366    1.5872 H   0  0  0  0  0  0  0  0  0  0  0  0
   -4.9966   -0.8150    1.1046 H   0  0  0  0  0  0  0  0  0  0  0  0
   -4.0664   -1.7070   -0.0988 H   0  0  0  0  0  0  0  0  0  0  0  0
   -1.8000   -2.8453    2.2208 H   0  0  0  0  0  0  0  0  0  0  0  0
   -2.1104   -3.1867    0.5231 H   0  0  0  0  0  0  0  0  0  0  0  0
   -0.0866   -4.3250    1.2871 H   0  0  0  0  0  0  0  0  0  0  0  0
    0.6215   -2.8191    1.8530 H   0  0  0  0  0  0  0  0  0  0  0  0
    0.7825   -5.0106   -0.7681 H   0  0  0  0  0  0  0  0  0  0  0  0
    1.2852   -3.8318   -2.0841 H   0  0  0  0  0  0  0  0  0  0  0  0
    1.2223   -1.0228    0.2073 H   0  0  0  0  0  0  0  0  0  0  0  0
    0.8224   -1.4882   -2.7837 H   0  0  0  0  0  0  0  0  0  0  0  0
    2.3309   -1.7764   -1.9810 H   0  0  0  0  0  0  0  0  0  0  0  0
    3.5921   -0.9742   -0.4080 H   0  0  0  0  0  0  0  0  0  0  0  0
    4.4844    3.7083   -1.8264 H   0  0  0  0  0  0  0  0  0  0  0  0
    2.4628    2.5484   -2.6303 H   0  0  0  0  0  0  0  0  0  0  0  0
    6.6187    3.6732   -0.4489 H   0  0  0  0  0  0  0  0  0  0  0  0
    8.1093    2.4012    1.0545 H   0  0  0  0  0  0  0  0  0  0  0  0
   -1.2743   -1.0243   -2.6366 H   0  0  0  0  0  0  0  0  0  0  0  0
   -2.7048   -0.8951   -1.6594 H   0  0  0  0  0  0  0  0  0  0  0  0
   -1.7958   -2.3950   -1.6580 H   0  0  0  0  0  0  0  0  0  0  0  0
  1  2  1  0
  2  3  2  0
  2  4  1  0
  4  5  1  0
  5  6  1  0
  6  7  1  0
  7  8  1  0
  8  9  1  0
  9 10  1  0
 10 11  1  0
 10 12  1  0
  9 13  1  0
 13 14  1  0
 14 15  1  0
 15 16  2  0
 15 17  1  0
 17 18  1  0
 18 19  1  0
 19 20  1  0
 20 21  2  0
 21 22  1  0
 22 23  2  0
 23 24  1  0
 24 25  2  0
 23 26  1  0
 26 27  2  0
 27 28  1  0
 28 29  2  0
 28 30  1  0
  8 31  1  0
 10  5  1  0
 17  8  1  0
 25 20  1  0
 30 22  1  0
  1 32  1  0
  1 33  1  0
  1 34  1  0
  5 35  1  0
  6 36  1  0
  6 37  1  0
  7 38  1  0
  7 39  1  0
  9 40  1  0
 11 41  1  0
 11 42  1  0
 11 43  1  0
 12 44  1  0
 12 45  1  0
 12 46  1  0
 13 47  1  0
 13 48  1  0
 14 49  1  0
 14 50  1  0
 16 51  1  0
 16 52  1  0
 17 53  1  0
 18 54  1  0
 18 55  1  0
 21 56  1  0
 24 57  1  0
 25 58  1  0
 26 59  1  0
 27 60  1  0
 31 61  1  0
 31 62  1  0
 31 63  1  0
M  END
>  <Name>  (80) 
Badrakemin

>  <PubChem ID>  (80) 
1771505

>  <CDB ID>  (80) 
CDB0080

>  <Smiles>  (80) 
CC(=O)OC1CCC2(C(C1(C)C)CCC(=C)C2COC3=CC4=C(C=C3)C=CC(=O)O4)C

>  <Chemical class>  (80) 
7-Oxygenated Coumarins

>  <Natural source>  (80) 
Ferula badrakema

>  <Molecular Formula>  (80) 
C26H32O5

>  <InChI-Key>  (80) 
MNGYOFNIAOWXIT-UHFFFAOYSA-N

>  <Total Molweight>  (80) 
424.535

>  <cLogP>  (80) 
4.9151

>  <cLogS>  (80) 
-5.548

>  <H-Acceptors>  (80) 
5

>  <H-Donors>  (80) 
0

>  <Rotatable Bonds>  (80) 
5

>  <Polar Surface Area>  (80) 
61.83

$$$$
CDB0081
     RDKit          3D

 56 59  0  0  0  0  0  0  0  0999 V2000
   -3.9249   -1.8829    1.4394 C   0  0  0  0  0  0  0  0  0  0  0  0
   -4.0542   -0.7815    0.3622 C   0  0  0  0  0  0  0  0  0  0  0  0
   -2.8915    0.2927    0.4725 C   0  0  0  0  0  0  0  0  0  0  0  0
   -3.3279    1.7171    0.0391 C   0  0  0  0  0  0  0  0  0  0  0  0
   -2.3330    2.7910    0.5026 C   0  0  0  0  0  0  0  0  0  0  0  0
   -0.9041    2.3130    0.4576 C   0  0  0  0  0  0  0  0  0  0  0  0
    0.0089    2.8198    1.3016 C   0  0  0  0  0  0  0  0  0  0  0  0
   -0.6663    1.2420   -0.5944 C   0  0  0  0  0  0  0  0  0  0  0  0
   -1.4989   -0.0759   -0.2372 C   0  0  0  0  0  0  0  0  0  0  0  0
   -1.7421   -0.8172   -1.5809 C   0  0  0  0  0  0  0  0  0  0  0  0
   -2.7056   -1.9803   -1.4927 C   0  0  0  0  0  0  0  0  0  0  0  0
   -4.0349   -1.4730   -1.0033 C   0  0  0  0  0  0  0  0  0  0  0  0
   -5.0547   -1.6683   -1.6657 O   0  0  0  0  0  0  0  0  0  0  0  0
   -0.6838   -0.9845    0.7099 C   0  0  0  0  0  0  0  0  0  0  0  0
    0.8106    1.0488   -1.0468 C   0  0  0  0  0  0  0  0  0  0  0  0
    1.6320    0.4910   -0.0245 O   0  0  0  0  0  0  0  0  0  0  0  0
    2.9480    0.2689   -0.3182 C   0  0  0  0  0  0  0  0  0  0  0  0
    3.6826   -0.3117    0.7166 C   0  0  0  0  0  0  0  0  0  0  0  0
    5.0357   -0.5847    0.5316 C   0  0  0  0  0  0  0  0  0  0  0  0
    5.6818   -0.2915   -0.6656 C   0  0  0  0  0  0  0  0  0  0  0  0
    4.9473    0.2902   -1.6993 C   0  0  0  0  0  0  0  0  0  0  0  0
    3.5842    0.5697   -1.5258 C   0  0  0  0  0  0  0  0  0  0  0  0
    7.0958   -0.5995   -0.7980 C   0  0  0  0  0  0  0  0  0  0  0  0
    7.7449   -1.1567    0.2289 C   0  0  0  0  0  0  0  0  0  0  0  0
    7.0814   -1.4767    1.5056 C   0  0  0  0  0  0  0  0  0  0  0  0
    7.7105   -1.9885    2.4246 O   0  0  0  0  0  0  0  0  0  0  0  0
    5.7310   -1.1722    1.6066 O   0  0  0  0  0  0  0  0  0  0  0  0
   -5.4562   -0.1628    0.5795 C   0  0  0  0  0  0  0  0  0  0  0  0
   -4.8215   -2.5153    1.4629 H   0  0  0  0  0  0  0  0  0  0  0  0
   -3.8048   -1.4490    2.4380 H   0  0  0  0  0  0  0  0  0  0  0  0
   -3.0988   -2.5718    1.2625 H   0  0  0  0  0  0  0  0  0  0  0  0
   -2.6824    0.3868    1.5498 H   0  0  0  0  0  0  0  0  0  0  0  0
   -3.4491    1.7524   -1.0508 H   0  0  0  0  0  0  0  0  0  0  0  0
   -4.2924    2.0041    0.4668 H   0  0  0  0  0  0  0  0  0  0  0  0
   -2.4468    3.6774   -0.1326 H   0  0  0  0  0  0  0  0  0  0  0  0
   -2.5926    3.0914    1.5260 H   0  0  0  0  0  0  0  0  0  0  0  0
    1.0435    2.4949    1.3134 H   0  0  0  0  0  0  0  0  0  0  0  0
   -0.2573    3.5842    2.0266 H   0  0  0  0  0  0  0  0  0  0  0  0
   -1.1272    1.6653   -1.5022 H   0  0  0  0  0  0  0  0  0  0  0  0
   -2.1393   -0.1080   -2.3197 H   0  0  0  0  0  0  0  0  0  0  0  0
   -0.7938   -1.1868   -1.9887 H   0  0  0  0  0  0  0  0  0  0  0  0
   -2.3426   -2.7781   -0.8404 H   0  0  0  0  0  0  0  0  0  0  0  0
   -2.8438   -2.4171   -2.4884 H   0  0  0  0  0  0  0  0  0  0  0  0
   -1.2513   -1.8370    1.0755 H   0  0  0  0  0  0  0  0  0  0  0  0
    0.1869   -1.4156    0.2062 H   0  0  0  0  0  0  0  0  0  0  0  0
   -0.3391   -0.4318    1.5903 H   0  0  0  0  0  0  0  0  0  0  0  0
    1.2110    2.0285   -1.3404 H   0  0  0  0  0  0  0  0  0  0  0  0
    0.8269    0.3946   -1.9263 H   0  0  0  0  0  0  0  0  0  0  0  0
    3.2017   -0.5500    1.6611 H   0  0  0  0  0  0  0  0  0  0  0  0
    5.4208    0.5338   -2.6475 H   0  0  0  0  0  0  0  0  0  0  0  0
    3.0505    1.0249   -2.3540 H   0  0  0  0  0  0  0  0  0  0  0  0
    7.6046   -0.3727   -1.7282 H   0  0  0  0  0  0  0  0  0  0  0  0
    8.7984   -1.4024    0.1731 H   0  0  0  0  0  0  0  0  0  0  0  0
   -5.7331    0.5185   -0.2328 H   0  0  0  0  0  0  0  0  0  0  0  0
   -5.5089    0.3766    1.5317 H   0  0  0  0  0  0  0  0  0  0  0  0
   -6.2364   -0.9342    0.6009 H   0  0  0  0  0  0  0  0  0  0  0  0
  1  2  1  0
  2  3  1  0
  3  4  1  0
  4  5  1  0
  5  6  1  0
  6  7  2  0
  6  8  1  0
  8  9  1  0
  9 10  1  0
 10 11  1  0
 11 12  1  0
 12 13  2  0
  9 14  1  0
  8 15  1  0
 15 16  1  0
 16 17  1  0
 17 18  2  0
 18 19  1  0
 19 20  2  0
 20 21  1  0
 21 22  2  0
 20 23  1  0
 23 24  2  0
 24 25  1  0
 25 26  2  0
 25 27  1  0
  2 28  1  0
 12  2  1  0
  9  3  1  0
 22 17  1  0
 27 19  1  0
  1 29  1  0
  1 30  1  0
  1 31  1  0
  3 32  1  0
  4 33  1  0
  4 34  1  0
  5 35  1  0
  5 36  1  0
  7 37  1  0
  7 38  1  0
  8 39  1  0
 10 40  1  0
 10 41  1  0
 11 42  1  0
 11 43  1  0
 14 44  1  0
 14 45  1  0
 14 46  1  0
 15 47  1  0
 15 48  1  0
 18 49  1  0
 21 50  1  0
 22 51  1  0
 23 52  1  0
 24 53  1  0
 28 54  1  0
 28 55  1  0
 28 56  1  0
M  END
>  <Name>  (81) 
Badrakemone

>  <PubChem ID>  (81) 
101793077

>  <CDB ID>  (81) 
CDB0081

>  <Smiles>  (81) 
CC1(C2CCC(=C)C(C2(CCC1=O)C)COC3=CC4=C(C=C3)C=CC(=O)O4)C

>  <Chemical class>  (81) 
7-Oxygenated Coumarins

>  <Natural source>  (81) 
Ferula nevskii

>  <Molecular Formula>  (81) 
C24H28O4

>  <InChI-Key>  (81) 
PJXNPYBRJFKRPB-UHFFFAOYSA-N

>  <Total Molweight>  (81) 
380.482

>  <cLogP>  (81) 
4.5742

>  <cLogS>  (81) 
-5.189

>  <H-Acceptors>  (81) 
4

>  <H-Donors>  (81) 
0

>  <Rotatable Bonds>  (81) 
3

>  <Polar Surface Area>  (81) 
52.6

$$$$
CDB0082
     RDKit          3D

 58 61  0  0  0  0  0  0  0  0999 V2000
   -3.7616   -0.1079   -2.9497 C   0  0  0  0  0  0  0  0  0  0  0  0
   -3.4466   -0.7004   -1.5471 C   0  0  0  0  0  0  0  0  0  0  0  0
   -1.9279   -0.4886   -1.1598 C   0  0  0  0  0  0  0  0  0  0  0  0
   -1.3914    0.9399   -1.4516 C   0  0  0  0  0  0  0  0  0  0  0  0
   -1.4821    1.9365   -0.3047 C   0  0  0  0  0  0  0  0  0  0  0  0
   -0.9914    1.3890    1.0041 C   0  0  0  0  0  0  0  0  0  0  0  0
   -1.0182    2.1514    2.1111 C   0  0  0  0  0  0  0  0  0  0  0  0
   -0.5137   -0.0557    1.0339 C   0  0  0  0  0  0  0  0  0  0  0  0
   -1.5531   -0.9978    0.2952 C   0  0  0  0  0  0  0  0  0  0  0  0
   -2.8164   -1.1536    1.2064 C   0  0  0  0  0  0  0  0  0  0  0  0
   -3.9537   -0.1730    0.9563 C   0  0  0  0  0  0  0  0  0  0  0  0
   -4.3753   -0.0220   -0.5069 C   0  0  0  0  0  0  0  0  0  0  0  0
   -5.7179   -0.4994   -0.6286 O   0  0  0  0  0  0  0  0  0  0  0  0
   -0.9306   -2.4185    0.1858 C   0  0  0  0  0  0  0  0  0  0  0  0
    0.9650   -0.1773    0.5689 C   0  0  0  0  0  0  0  0  0  0  0  0
    1.7948    0.6342    1.4130 O   0  0  0  0  0  0  0  0  0  0  0  0
    3.1281    0.6890    1.1179 C   0  0  0  0  0  0  0  0  0  0  0  0
    3.7792   -0.0365    0.1230 C   0  0  0  0  0  0  0  0  0  0  0  0
    5.1540    0.1323   -0.0501 C   0  0  0  0  0  0  0  0  0  0  0  0
    5.8979    1.0032    0.7430 C   0  0  0  0  0  0  0  0  0  0  0  0
    5.2441    1.7255    1.7393 C   0  0  0  0  0  0  0  0  0  0  0  0
    3.8661    1.5653    1.9227 C   0  0  0  0  0  0  0  0  0  0  0  0
    7.3263    1.1285    0.5064 C   0  0  0  0  0  0  0  0  0  0  0  0
    7.8974    0.4087   -0.4641 C   0  0  0  0  0  0  0  0  0  0  0  0
    7.1326   -0.5187   -1.3164 C   0  0  0  0  0  0  0  0  0  0  0  0
    7.6902   -1.1621   -2.1980 O   0  0  0  0  0  0  0  0  0  0  0  0
    5.7703   -0.6215   -1.0702 O   0  0  0  0  0  0  0  0  0  0  0  0
   -3.7680   -2.2129   -1.6979 C   0  0  0  0  0  0  0  0  0  0  0  0
   -3.0164   -0.4277   -3.6869 H   0  0  0  0  0  0  0  0  0  0  0  0
   -4.7422   -0.4332   -3.3165 H   0  0  0  0  0  0  0  0  0  0  0  0
   -3.7920    0.9861   -2.9417 H   0  0  0  0  0  0  0  0  0  0  0  0
   -1.3683   -1.1127   -1.8736 H   0  0  0  0  0  0  0  0  0  0  0  0
   -0.3392    0.8508   -1.7467 H   0  0  0  0  0  0  0  0  0  0  0  0
   -1.8513    1.3850   -2.3366 H   0  0  0  0  0  0  0  0  0  0  0  0
   -2.5189    2.2727   -0.1972 H   0  0  0  0  0  0  0  0  0  0  0  0
   -0.8911    2.8223   -0.5703 H   0  0  0  0  0  0  0  0  0  0  0  0
   -1.3730    3.1772    2.0852 H   0  0  0  0  0  0  0  0  0  0  0  0
   -0.6739    1.7733    3.0693 H   0  0  0  0  0  0  0  0  0  0  0  0
   -0.4892   -0.3677    2.0896 H   0  0  0  0  0  0  0  0  0  0  0  0
   -3.2285   -2.1653    1.1216 H   0  0  0  0  0  0  0  0  0  0  0  0
   -2.5299   -1.0863    2.2644 H   0  0  0  0  0  0  0  0  0  0  0  0
   -3.6611    0.8097    1.3404 H   0  0  0  0  0  0  0  0  0  0  0  0
   -4.8115   -0.4706    1.5733 H   0  0  0  0  0  0  0  0  0  0  0  0
   -4.4306    1.0542   -0.7118 H   0  0  0  0  0  0  0  0  0  0  0  0
   -6.0496   -0.2366   -1.5033 H   0  0  0  0  0  0  0  0  0  0  0  0
   -0.5826   -2.7703    1.1640 H   0  0  0  0  0  0  0  0  0  0  0  0
   -0.0822   -2.4388   -0.5064 H   0  0  0  0  0  0  0  0  0  0  0  0
   -1.6469   -3.1569   -0.1851 H   0  0  0  0  0  0  0  0  0  0  0  0
    1.2997   -1.2135    0.6828 H   0  0  0  0  0  0  0  0  0  0  0  0
    1.0872    0.1274   -0.4725 H   0  0  0  0  0  0  0  0  0  0  0  0
    3.2577   -0.7328   -0.5231 H   0  0  0  0  0  0  0  0  0  0  0  0
    5.7876    2.4149    2.3801 H   0  0  0  0  0  0  0  0  0  0  0  0
    3.3581    2.1314    2.7009 H   0  0  0  0  0  0  0  0  0  0  0  0
    7.9086    1.8051    1.1219 H   0  0  0  0  0  0  0  0  0  0  0  0
    8.9583    0.4724   -0.6732 H   0  0  0  0  0  0  0  0  0  0  0  0
   -3.7874   -2.7520   -0.7518 H   0  0  0  0  0  0  0  0  0  0  0  0
   -4.7534   -2.3720   -2.1524 H   0  0  0  0  0  0  0  0  0  0  0  0
   -3.0360   -2.7038   -2.3495 H   0  0  0  0  0  0  0  0  0  0  0  0
  1  2  1  0
  2  3  1  0
  3  4  1  0
  4  5  1  0
  5  6  1  0
  6  7  2  0
  6  8  1  0
  8  9  1  0
  9 10  1  0
 10 11  1  0
 11 12  1  0
 12 13  1  0
  9 14  1  0
  8 15  1  0
 15 16  1  0
 16 17  1  0
 17 18  2  0
 18 19  1  0
 19 20  2  0
 20 21  1  0
 21 22  2  0
 20 23  1  0
 23 24  2  0
 24 25  1  0
 25 26  2  0
 25 27  1  0
  2 28  1  0
 12  2  1  0
  9  3  1  0
 22 17  1  0
 27 19  1  0
  1 29  1  0
  1 30  1  0
  1 31  1  0
  3 32  1  0
  4 33  1  0
  4 34  1  0
  5 35  1  0
  5 36  1  0
  7 37  1  0
  7 38  1  0
  8 39  1  0
 10 40  1  0
 10 41  1  0
 11 42  1  0
 11 43  1  0
 12 44  1  0
 13 45  1  0
 14 46  1  0
 14 47  1  0
 14 48  1  0
 15 49  1  0
 15 50  1  0
 18 51  1  0
 21 52  1  0
 22 53  1  0
 23 54  1  0
 24 55  1  0
 28 56  1  0
 28 57  1  0
 28 58  1  0
M  END
>  <Name>  (82) 
Lehmferidin (Ferilin)

>  <PubChem ID>  (82) 
26087982

>  <CDB ID>  (82) 
CDB0082

>  <Smiles>  (82) 
CC1(C2CCC(=C)C(C2(CCC1O)C)COC3=CC4=C(C=C3)C=CC(=O)O4)C

>  <Chemical class>  (82) 
7-Oxygenated Coumarins

>  <Natural source>  (82) 
Ferula lehmanni

>  <Molecular Formula>  (82) 
C24H30O4

>  <InChI-Key>  (82) 
FCWYNTDTQPCVPG-UHFFFAOYSA-N

>  <Total Molweight>  (82) 
382.498

>  <cLogP>  (82) 
4.4305

>  <cLogS>  (82) 
-5.138

>  <H-Acceptors>  (82) 
4

>  <H-Donors>  (82) 
1

>  <Rotatable Bonds>  (82) 
3

>  <Polar Surface Area>  (82) 
55.76

$$$$
CDB0083
     RDKit          3D

 80 84  0  0  0  0  0  0  0  0999 V2000
   -2.7757    2.9033   -0.9883 C   0  0  0  0  0  0  0  0  0  0  0  0
   -1.5962    2.9128    0.0279 C   0  0  0  0  0  0  0  0  0  0  0  0
   -0.6239    4.0805   -0.3351 C   0  0  0  0  0  0  0  0  0  0  0  0
    0.3904    3.6620   -1.3829 C   0  0  0  0  0  0  0  0  0  0  0  0
    1.3193    2.5592   -0.8863 C   0  0  0  0  0  0  0  0  0  0  0  0
    0.7207    1.5749    0.1686 C   0  0  0  0  0  0  0  0  0  0  0  0
   -0.8504    1.4998   -0.0241 C   0  0  0  0  0  0  0  0  0  0  0  0
   -1.5045    0.3795    0.8538 C   0  0  0  0  0  0  0  0  0  0  0  0
   -0.8068   -0.9736    0.6381 C   0  0  0  0  0  0  0  0  0  0  0  0
    0.6814   -0.8858    0.8395 C   0  0  0  0  0  0  0  0  0  0  0  0
    1.2901   -1.6738    1.7428 C   0  0  0  0  0  0  0  0  0  0  0  0
    1.3579    0.1396   -0.0712 C   0  0  0  0  0  0  0  0  0  0  0  0
    2.9130    0.1289   -0.0139 C   0  0  0  0  0  0  0  0  0  0  0  0
    3.3873   -1.0996   -0.5792 O   0  0  0  0  0  0  0  0  0  0  0  0
    4.7360   -1.3203   -0.5690 C   0  0  0  0  0  0  0  0  0  0  0  0
    5.1247   -2.5625   -1.0726 C   0  0  0  0  0  0  0  0  0  0  0  0
    6.4761   -2.8974   -1.1123 C   0  0  0  0  0  0  0  0  0  0  0  0
    7.4582   -2.0205   -0.6613 C   0  0  0  0  0  0  0  0  0  0  0  0
    7.0694   -0.7782   -0.1598 C   0  0  0  0  0  0  0  0  0  0  0  0
    5.7121   -0.4289   -0.1145 C   0  0  0  0  0  0  0  0  0  0  0  0
    8.8517   -2.4272   -0.7285 C   0  0  0  0  0  0  0  0  0  0  0  0
    9.1610   -3.6308   -1.2205 C   0  0  0  0  0  0  0  0  0  0  0  0
    8.1383   -4.5756   -1.7040 C   0  0  0  0  0  0  0  0  0  0  0  0
    8.4617   -5.6709   -2.1490 O   0  0  0  0  0  0  0  0  0  0  0  0
    6.8151   -4.1634   -1.6286 O   0  0  0  0  0  0  0  0  0  0  0  0
   -2.8901    0.2675    0.5001 O   0  0  0  0  0  0  0  0  0  0  0  0
   -3.6796   -0.5032    1.4048 C   0  0  0  0  0  0  0  0  0  0  0  0
   -5.1087    0.0836    1.5172 C   0  0  0  0  0  0  0  0  0  0  0  0
   -6.0477   -0.4941    0.4420 C   0  0  0  0  0  0  0  0  0  0  0  0
   -5.2667   -0.9457   -0.7923 C   0  0  0  0  0  0  0  0  0  0  0  0
   -4.2283   -2.0118   -0.3861 C   0  0  0  0  0  0  0  0  0  0  0  0
   -3.7604   -1.8661    0.9769 O   0  0  0  0  0  0  0  0  0  0  0  0
   -4.7533   -3.4492   -0.5016 C   0  0  0  0  0  0  0  0  0  0  0  0
   -3.7175   -4.3668   -0.1427 O   0  0  0  0  0  0  0  0  0  0  0  0
   -6.1884   -1.4083   -1.7863 O   0  0  0  0  0  0  0  0  0  0  0  0
   -7.0236    0.4848    0.0540 O   0  0  0  0  0  0  0  0  0  0  0  0
   -5.6541   -0.2111    2.8211 O   0  0  0  0  0  0  0  0  0  0  0  0
    1.1051    2.0531    1.5941 C   0  0  0  0  0  0  0  0  0  0  0  0
   -1.3393    5.2223   -0.8053 O   0  0  0  0  0  0  0  0  0  0  0  0
   -2.2077    3.2325    1.4111 C   0  0  0  0  0  0  0  0  0  0  0  0
   -3.5071    2.1216   -0.7750 H   0  0  0  0  0  0  0  0  0  0  0  0
   -3.3340    3.8463   -0.9707 H   0  0  0  0  0  0  0  0  0  0  0  0
   -2.4183    2.7487   -2.0119 H   0  0  0  0  0  0  0  0  0  0  0  0
   -0.0908    4.4256    0.5554 H   0  0  0  0  0  0  0  0  0  0  0  0
   -0.1304    3.3279   -2.2893 H   0  0  0  0  0  0  0  0  0  0  0  0
    0.9871    4.5241   -1.7069 H   0  0  0  0  0  0  0  0  0  0  0  0
    2.2247    3.0272   -0.4782 H   0  0  0  0  0  0  0  0  0  0  0  0
    1.6476    2.0089   -1.7778 H   0  0  0  0  0  0  0  0  0  0  0  0
   -0.9853    1.1552   -1.0631 H   0  0  0  0  0  0  0  0  0  0  0  0
   -1.4289    0.6676    1.9093 H   0  0  0  0  0  0  0  0  0  0  0  0
   -1.2403   -1.7240    1.3092 H   0  0  0  0  0  0  0  0  0  0  0  0
   -1.0124   -1.3391   -0.3764 H   0  0  0  0  0  0  0  0  0  0  0  0
    2.3615   -1.6627    1.9112 H   0  0  0  0  0  0  0  0  0  0  0  0
    0.7296   -2.3870    2.3416 H   0  0  0  0  0  0  0  0  0  0  0  0
    1.0975   -0.1690   -1.0960 H   0  0  0  0  0  0  0  0  0  0  0  0
    3.2645    0.2312    1.0193 H   0  0  0  0  0  0  0  0  0  0  0  0
    3.3207    0.9512   -0.6096 H   0  0  0  0  0  0  0  0  0  0  0  0
    4.3771   -3.2650   -1.4302 H   0  0  0  0  0  0  0  0  0  0  0  0
    7.8109   -0.0684    0.1995 H   0  0  0  0  0  0  0  0  0  0  0  0
    5.4533    0.5484    0.2798 H   0  0  0  0  0  0  0  0  0  0  0  0
    9.6213   -1.7484   -0.3785 H   0  0  0  0  0  0  0  0  0  0  0  0
   10.1862   -3.9738   -1.2887 H   0  0  0  0  0  0  0  0  0  0  0  0
   -3.2266   -0.5026    2.4034 H   0  0  0  0  0  0  0  0  0  0  0  0
   -5.0707    1.1760    1.4461 H   0  0  0  0  0  0  0  0  0  0  0  0
   -6.6265   -1.3351    0.8435 H   0  0  0  0  0  0  0  0  0  0  0  0
   -4.7660   -0.0727   -1.2282 H   0  0  0  0  0  0  0  0  0  0  0  0
   -3.3510   -1.9249   -1.0389 H   0  0  0  0  0  0  0  0  0  0  0  0
   -5.5906   -3.6201    0.1826 H   0  0  0  0  0  0  0  0  0  0  0  0
   -5.0699   -3.6882   -1.5205 H   0  0  0  0  0  0  0  0  0  0  0  0
   -3.3190   -4.0093    0.6742 H   0  0  0  0  0  0  0  0  0  0  0  0
   -5.7028   -1.4633   -2.6303 H   0  0  0  0  0  0  0  0  0  0  0  0
   -7.4708    0.1072   -0.7290 H   0  0  0  0  0  0  0  0  0  0  0  0
   -5.7298   -1.1784    2.8995 H   0  0  0  0  0  0  0  0  0  0  0  0
    2.1921    2.0948    1.7208 H   0  0  0  0  0  0  0  0  0  0  0  0
    0.7445    3.0556    1.8212 H   0  0  0  0  0  0  0  0  0  0  0  0
    0.7146    1.3913    2.3726 H   0  0  0  0  0  0  0  0  0  0  0  0
   -0.6950    5.9302   -0.9763 H   0  0  0  0  0  0  0  0  0  0  0  0
   -3.0236    2.5528    1.6707 H   0  0  0  0  0  0  0  0  0  0  0  0
   -2.6276    4.2453    1.4301 H   0  0  0  0  0  0  0  0  0  0  0  0
   -1.4627    3.1754    2.2092 H   0  0  0  0  0  0  0  0  0  0  0  0
  1  2  1  0
  2  3  1  0
  3  4  1  0
  4  5  1  0
  5  6  1  0
  6  7  1  0
  7  8  1  0
  8  9  1  0
  9 10  1  0
 10 11  2  0
 10 12  1  0
 12 13  1  0
 13 14  1  0
 14 15  1  0
 15 16  2  0
 16 17  1  0
 17 18  2  0
 18 19  1  0
 19 20  2  0
 18 21  1  0
 21 22  2  0
 22 23  1  0
 23 24  2  0
 23 25  1  0
  8 26  1  0
 26 27  1  0
 27 28  1  0
 28 29  1  0
 29 30  1  0
 30 31  1  0
 31 32  1  0
 31 33  1  0
 33 34  1  0
 30 35  1  0
 29 36  1  0
 28 37  1  0
  6 38  1  0
  3 39  1  0
  2 40  1  0
  7  2  1  0
 12  6  1  0
 20 15  1  0
 25 17  1  0
 32 27  1  0
  1 41  1  0
  1 42  1  0
  1 43  1  0
  3 44  1  0
  4 45  1  0
  4 46  1  0
  5 47  1  0
  5 48  1  0
  7 49  1  0
  8 50  1  0
  9 51  1  0
  9 52  1  0
 11 53  1  0
 11 54  1  0
 12 55  1  0
 13 56  1  0
 13 57  1  0
 16 58  1  0
 19 59  1  0
 20 60  1  0
 21 61  1  0
 22 62  1  0
 27 63  1  0
 28 64  1  0
 29 65  1  0
 30 66  1  0
 31 67  1  0
 33 68  1  0
 33 69  1  0
 34 70  1  0
 35 71  1  0
 36 72  1  0
 37 73  1  0
 38 74  1  0
 38 75  1  0
 38 76  1  0
 39 77  1  0
 40 78  1  0
 40 79  1  0
 40 80  1  0
M  END
>  <Name>  (83) 
Cauferoside

>  <PubChem ID>  (83) 
53316970

>  <CDB ID>  (83) 
CDB0083

>  <Smiles>  (83) 
CC1(C(CCC2(C1C(CC(=C)C2COC3=CC4=C(C=C3)C=CC(=O)O4)OC5C(C(C(C(O5)CO)O)O)O)C)O)C

>  <Chemical class>  (83) 
7-Oxygenated Coumarins

>  <Natural source>  (83) 
Ferula conocaula

>  <Molecular Formula>  (83) 
C30H40O10

>  <InChI-Key>  (83) 
QXUYLJHWIGWKRJ-UHFFFAOYSA-N

>  <Total Molweight>  (83) 
560.638

>  <cLogP>  (83) 
1.7413

>  <cLogS>  (83) 
-4.439

>  <H-Acceptors>  (83) 
10

>  <H-Donors>  (83) 
5

>  <Rotatable Bonds>  (83) 
6

>  <Polar Surface Area>  (83) 
155.14

$$$$
CDB0084
     RDKit          3D

 58 61  0  0  0  0  0  0  0  0999 V2000
   -3.7616   -0.1079   -2.9497 C   0  0  0  0  0  0  0  0  0  0  0  0
   -3.4466   -0.7004   -1.5471 C   0  0  0  0  0  0  0  0  0  0  0  0
   -1.9279   -0.4886   -1.1598 C   0  0  0  0  0  0  0  0  0  0  0  0
   -1.3914    0.9399   -1.4516 C   0  0  0  0  0  0  0  0  0  0  0  0
   -1.4821    1.9365   -0.3047 C   0  0  0  0  0  0  0  0  0  0  0  0
   -0.9914    1.3890    1.0041 C   0  0  0  0  0  0  0  0  0  0  0  0
   -1.0182    2.1514    2.1111 C   0  0  0  0  0  0  0  0  0  0  0  0
   -0.5137   -0.0557    1.0339 C   0  0  0  0  0  0  0  0  0  0  0  0
   -1.5531   -0.9978    0.2952 C   0  0  0  0  0  0  0  0  0  0  0  0
   -2.8164   -1.1536    1.2064 C   0  0  0  0  0  0  0  0  0  0  0  0
   -3.9537   -0.1730    0.9563 C   0  0  0  0  0  0  0  0  0  0  0  0
   -4.3753   -0.0220   -0.5069 C   0  0  0  0  0  0  0  0  0  0  0  0
   -5.7179   -0.4994   -0.6286 O   0  0  0  0  0  0  0  0  0  0  0  0
   -0.9306   -2.4185    0.1858 C   0  0  0  0  0  0  0  0  0  0  0  0
    0.9650   -0.1773    0.5689 C   0  0  0  0  0  0  0  0  0  0  0  0
    1.7948    0.6342    1.4130 O   0  0  0  0  0  0  0  0  0  0  0  0
    3.1281    0.6890    1.1179 C   0  0  0  0  0  0  0  0  0  0  0  0
    3.7792   -0.0365    0.1230 C   0  0  0  0  0  0  0  0  0  0  0  0
    5.1540    0.1323   -0.0501 C   0  0  0  0  0  0  0  0  0  0  0  0
    5.8979    1.0032    0.7430 C   0  0  0  0  0  0  0  0  0  0  0  0
    5.2441    1.7255    1.7393 C   0  0  0  0  0  0  0  0  0  0  0  0
    3.8661    1.5653    1.9227 C   0  0  0  0  0  0  0  0  0  0  0  0
    7.3263    1.1285    0.5064 C   0  0  0  0  0  0  0  0  0  0  0  0
    7.8974    0.4087   -0.4641 C   0  0  0  0  0  0  0  0  0  0  0  0
    7.1326   -0.5187   -1.3164 C   0  0  0  0  0  0  0  0  0  0  0  0
    7.6902   -1.1621   -2.1980 O   0  0  0  0  0  0  0  0  0  0  0  0
    5.7703   -0.6215   -1.0702 O   0  0  0  0  0  0  0  0  0  0  0  0
   -3.7680   -2.2129   -1.6979 C   0  0  0  0  0  0  0  0  0  0  0  0
   -3.0164   -0.4277   -3.6869 H   0  0  0  0  0  0  0  0  0  0  0  0
   -4.7422   -0.4332   -3.3165 H   0  0  0  0  0  0  0  0  0  0  0  0
   -3.7920    0.9861   -2.9417 H   0  0  0  0  0  0  0  0  0  0  0  0
   -1.3683   -1.1127   -1.8736 H   0  0  0  0  0  0  0  0  0  0  0  0
   -0.3392    0.8508   -1.7467 H   0  0  0  0  0  0  0  0  0  0  0  0
   -1.8513    1.3850   -2.3366 H   0  0  0  0  0  0  0  0  0  0  0  0
   -2.5189    2.2727   -0.1972 H   0  0  0  0  0  0  0  0  0  0  0  0
   -0.8911    2.8223   -0.5703 H   0  0  0  0  0  0  0  0  0  0  0  0
   -1.3730    3.1772    2.0852 H   0  0  0  0  0  0  0  0  0  0  0  0
   -0.6739    1.7733    3.0693 H   0  0  0  0  0  0  0  0  0  0  0  0
   -0.4892   -0.3677    2.0896 H   0  0  0  0  0  0  0  0  0  0  0  0
   -3.2285   -2.1653    1.1216 H   0  0  0  0  0  0  0  0  0  0  0  0
   -2.5299   -1.0863    2.2644 H   0  0  0  0  0  0  0  0  0  0  0  0
   -3.6611    0.8097    1.3404 H   0  0  0  0  0  0  0  0  0  0  0  0
   -4.8115   -0.4706    1.5733 H   0  0  0  0  0  0  0  0  0  0  0  0
   -4.4306    1.0542   -0.7118 H   0  0  0  0  0  0  0  0  0  0  0  0
   -6.0496   -0.2366   -1.5033 H   0  0  0  0  0  0  0  0  0  0  0  0
   -0.5826   -2.7703    1.1640 H   0  0  0  0  0  0  0  0  0  0  0  0
   -0.0822   -2.4388   -0.5064 H   0  0  0  0  0  0  0  0  0  0  0  0
   -1.6469   -3.1569   -0.1851 H   0  0  0  0  0  0  0  0  0  0  0  0
    1.2997   -1.2135    0.6828 H   0  0  0  0  0  0  0  0  0  0  0  0
    1.0872    0.1274   -0.4725 H   0  0  0  0  0  0  0  0  0  0  0  0
    3.2577   -0.7328   -0.5231 H   0  0  0  0  0  0  0  0  0  0  0  0
    5.7876    2.4149    2.3801 H   0  0  0  0  0  0  0  0  0  0  0  0
    3.3581    2.1314    2.7009 H   0  0  0  0  0  0  0  0  0  0  0  0
    7.9086    1.8051    1.1219 H   0  0  0  0  0  0  0  0  0  0  0  0
    8.9583    0.4724   -0.6732 H   0  0  0  0  0  0  0  0  0  0  0  0
   -3.7874   -2.7520   -0.7518 H   0  0  0  0  0  0  0  0  0  0  0  0
   -4.7534   -2.3720   -2.1524 H   0  0  0  0  0  0  0  0  0  0  0  0
   -3.0360   -2.7038   -2.3495 H   0  0  0  0  0  0  0  0  0  0  0  0
  1  2  1  0
  2  3  1  0
  3  4  1  0
  4  5  1  0
  5  6  1  0
  6  7  2  0
  6  8  1  0
  8  9  1  0
  9 10  1  0
 10 11  1  0
 11 12  1  0
 12 13  1  0
  9 14  1  0
  8 15  1  0
 15 16  1  0
 16 17  1  0
 17 18  2  0
 18 19  1  0
 19 20  2  0
 20 21  1  0
 21 22  2  0
 20 23  1  0
 23 24  2  0
 24 25  1  0
 25 26  2  0
 25 27  1  0
  2 28  1  0
 12  2  1  0
  9  3  1  0
 22 17  1  0
 27 19  1  0
  1 29  1  0
  1 30  1  0
  1 31  1  0
  3 32  1  0
  4 33  1  0
  4 34  1  0
  5 35  1  0
  5 36  1  0
  7 37  1  0
  7 38  1  0
  8 39  1  0
 10 40  1  0
 10 41  1  0
 11 42  1  0
 11 43  1  0
 12 44  1  0
 13 45  1  0
 14 46  1  0
 14 47  1  0
 14 48  1  0
 15 49  1  0
 15 50  1  0
 18 51  1  0
 21 52  1  0
 22 53  1  0
 23 54  1  0
 24 55  1  0
 28 56  1  0
 28 57  1  0
 28 58  1  0
M  END
>  <Name>  (84) 
Farnesiferol A (Mogoltadin)

>  <PubChem ID>  (84) 
7067262

>  <CDB ID>  (84) 
CDB0084

>  <Smiles>  (84) 
CC1(C2CCC(=C)C(C2(CCC1O)C)COC3=CC4=C(C=C3)C=CC(=O)O4)C

>  <Chemical class>  (84) 
7-Oxygenated Coumarins

>  <Natural source>  (84) 
Ferula assafoetida

>  <Molecular Formula>  (84) 
C24H30O4

>  <InChI-Key>  (84) 
FCWYNTDTQPCVPG-UHFFFAOYSA-N

>  <Total Molweight>  (84) 
382.498

>  <cLogP>  (84) 
4.4305

>  <cLogS>  (84) 
-5.138

>  <H-Acceptors>  (84) 
4

>  <H-Donors>  (84) 
1

>  <Rotatable Bonds>  (84) 
3

>  <Polar Surface Area>  (84) 
55.76

$$$$
CDB0085
     RDKit          3D

 58 61  0  0  0  0  0  0  0  0999 V2000
   -3.7616   -0.1079   -2.9497 C   0  0  0  0  0  0  0  0  0  0  0  0
   -3.4466   -0.7004   -1.5471 C   0  0  0  0  0  0  0  0  0  0  0  0
   -1.9279   -0.4886   -1.1598 C   0  0  0  0  0  0  0  0  0  0  0  0
   -1.3914    0.9399   -1.4516 C   0  0  0  0  0  0  0  0  0  0  0  0
   -1.4821    1.9365   -0.3047 C   0  0  0  0  0  0  0  0  0  0  0  0
   -0.9914    1.3890    1.0041 C   0  0  0  0  0  0  0  0  0  0  0  0
   -1.0182    2.1514    2.1111 C   0  0  0  0  0  0  0  0  0  0  0  0
   -0.5137   -0.0557    1.0339 C   0  0  0  0  0  0  0  0  0  0  0  0
   -1.5531   -0.9978    0.2952 C   0  0  0  0  0  0  0  0  0  0  0  0
   -2.8164   -1.1536    1.2064 C   0  0  0  0  0  0  0  0  0  0  0  0
   -3.9537   -0.1730    0.9563 C   0  0  0  0  0  0  0  0  0  0  0  0
   -4.3753   -0.0220   -0.5069 C   0  0  0  0  0  0  0  0  0  0  0  0
   -5.7179   -0.4994   -0.6286 O   0  0  0  0  0  0  0  0  0  0  0  0
   -0.9306   -2.4185    0.1858 C   0  0  0  0  0  0  0  0  0  0  0  0
    0.9650   -0.1773    0.5689 C   0  0  0  0  0  0  0  0  0  0  0  0
    1.7948    0.6342    1.4130 O   0  0  0  0  0  0  0  0  0  0  0  0
    3.1281    0.6890    1.1179 C   0  0  0  0  0  0  0  0  0  0  0  0
    3.7792   -0.0365    0.1230 C   0  0  0  0  0  0  0  0  0  0  0  0
    5.1540    0.1323   -0.0501 C   0  0  0  0  0  0  0  0  0  0  0  0
    5.8979    1.0032    0.7430 C   0  0  0  0  0  0  0  0  0  0  0  0
    5.2441    1.7255    1.7393 C   0  0  0  0  0  0  0  0  0  0  0  0
    3.8661    1.5653    1.9227 C   0  0  0  0  0  0  0  0  0  0  0  0
    7.3263    1.1285    0.5064 C   0  0  0  0  0  0  0  0  0  0  0  0
    7.8974    0.4087   -0.4641 C   0  0  0  0  0  0  0  0  0  0  0  0
    7.1326   -0.5187   -1.3164 C   0  0  0  0  0  0  0  0  0  0  0  0
    7.6902   -1.1621   -2.1980 O   0  0  0  0  0  0  0  0  0  0  0  0
    5.7703   -0.6215   -1.0702 O   0  0  0  0  0  0  0  0  0  0  0  0
   -3.7680   -2.2129   -1.6979 C   0  0  0  0  0  0  0  0  0  0  0  0
   -3.0164   -0.4277   -3.6869 H   0  0  0  0  0  0  0  0  0  0  0  0
   -4.7422   -0.4332   -3.3165 H   0  0  0  0  0  0  0  0  0  0  0  0
   -3.7920    0.9861   -2.9417 H   0  0  0  0  0  0  0  0  0  0  0  0
   -1.3683   -1.1127   -1.8736 H   0  0  0  0  0  0  0  0  0  0  0  0
   -0.3392    0.8508   -1.7467 H   0  0  0  0  0  0  0  0  0  0  0  0
   -1.8513    1.3850   -2.3366 H   0  0  0  0  0  0  0  0  0  0  0  0
   -2.5189    2.2727   -0.1972 H   0  0  0  0  0  0  0  0  0  0  0  0
   -0.8911    2.8223   -0.5703 H   0  0  0  0  0  0  0  0  0  0  0  0
   -1.3730    3.1772    2.0852 H   0  0  0  0  0  0  0  0  0  0  0  0
   -0.6739    1.7733    3.0693 H   0  0  0  0  0  0  0  0  0  0  0  0
   -0.4892   -0.3677    2.0896 H   0  0  0  0  0  0  0  0  0  0  0  0
   -3.2285   -2.1653    1.1216 H   0  0  0  0  0  0  0  0  0  0  0  0
   -2.5299   -1.0863    2.2644 H   0  0  0  0  0  0  0  0  0  0  0  0
   -3.6611    0.8097    1.3404 H   0  0  0  0  0  0  0  0  0  0  0  0
   -4.8115   -0.4706    1.5733 H   0  0  0  0  0  0  0  0  0  0  0  0
   -4.4306    1.0542   -0.7118 H   0  0  0  0  0  0  0  0  0  0  0  0
   -6.0496   -0.2366   -1.5033 H   0  0  0  0  0  0  0  0  0  0  0  0
   -0.5826   -2.7703    1.1640 H   0  0  0  0  0  0  0  0  0  0  0  0
   -0.0822   -2.4388   -0.5064 H   0  0  0  0  0  0  0  0  0  0  0  0
   -1.6469   -3.1569   -0.1851 H   0  0  0  0  0  0  0  0  0  0  0  0
    1.2997   -1.2135    0.6828 H   0  0  0  0  0  0  0  0  0  0  0  0
    1.0872    0.1274   -0.4725 H   0  0  0  0  0  0  0  0  0  0  0  0
    3.2577   -0.7328   -0.5231 H   0  0  0  0  0  0  0  0  0  0  0  0
    5.7876    2.4149    2.3801 H   0  0  0  0  0  0  0  0  0  0  0  0
    3.3581    2.1314    2.7009 H   0  0  0  0  0  0  0  0  0  0  0  0
    7.9086    1.8051    1.1219 H   0  0  0  0  0  0  0  0  0  0  0  0
    8.9583    0.4724   -0.6732 H   0  0  0  0  0  0  0  0  0  0  0  0
   -3.7874   -2.7520   -0.7518 H   0  0  0  0  0  0  0  0  0  0  0  0
   -4.7534   -2.3720   -2.1524 H   0  0  0  0  0  0  0  0  0  0  0  0
   -3.0360   -2.7038   -2.3495 H   0  0  0  0  0  0  0  0  0  0  0  0
  1  2  1  0
  2  3  1  0
  3  4  1  0
  4  5  1  0
  5  6  1  0
  6  7  2  0
  6  8  1  0
  8  9  1  0
  9 10  1  0
 10 11  1  0
 11 12  1  0
 12 13  1  0
  9 14  1  0
  8 15  1  0
 15 16  1  0
 16 17  1  0
 17 18  2  0
 18 19  1  0
 19 20  2  0
 20 21  1  0
 21 22  2  0
 20 23  1  0
 23 24  2  0
 24 25  1  0
 25 26  2  0
 25 27  1  0
  2 28  1  0
 12  2  1  0
  9  3  1  0
 22 17  1  0
 27 19  1  0
  1 29  1  0
  1 30  1  0
  1 31  1  0
  3 32  1  0
  4 33  1  0
  4 34  1  0
  5 35  1  0
  5 36  1  0
  7 37  1  0
  7 38  1  0
  8 39  1  0
 10 40  1  0
 10 41  1  0
 11 42  1  0
 11 43  1  0
 12 44  1  0
 13 45  1  0
 14 46  1  0
 14 47  1  0
 14 48  1  0
 15 49  1  0
 15 50  1  0
 18 51  1  0
 21 52  1  0
 22 53  1  0
 23 54  1  0
 24 55  1  0
 28 56  1  0
 28 57  1  0
 28 58  1  0
M  END
>  <Name>  (85) 
Gummosin

>  <PubChem ID>  (85) 
7092581

>  <CDB ID>  (85) 
CDB0085

>  <Smiles>  (85) 
CC1(C2CCC(=C)C(C2(CCC1O)C)COC3=CC4=C(C=C3)C=CC(=O)O4)C

>  <Chemical class>  (85) 
7-Oxygenated Coumarins

>  <Natural source>  (85) 
Ferula gummosa

>  <Molecular Formula>  (85) 
C24H30O4

>  <InChI-Key>  (85) 
FCWYNTDTQPCVPG-UHFFFAOYSA-N

>  <Total Molweight>  (85) 
382.498

>  <cLogP>  (85) 
4.4305

>  <cLogS>  (85) 
-5.138

>  <H-Acceptors>  (85) 
4

>  <H-Donors>  (85) 
1

>  <Rotatable Bonds>  (85) 
3

>  <Polar Surface Area>  (85) 
55.76

$$$$
CDB0086
     RDKit          3D

 66 69  0  0  0  0  0  0  0  0999 V2000
    1.5800   -2.3513   -2.4331 C   0  0  0  0  0  0  0  0  0  0  0  0
    0.4434   -1.7512   -2.0379 C   0  0  0  0  0  0  0  0  0  0  0  0
   -0.8713   -2.4524   -2.2846 C   0  0  0  0  0  0  0  0  0  0  0  0
   -2.0549   -1.4967   -2.1696 C   0  0  0  0  0  0  0  0  0  0  0  0
   -2.1952   -0.8154   -0.7603 C   0  0  2  0  0  0  0  0  0  0  0  0
   -2.9165   -1.8813    0.1301 C   0  0  0  0  0  0  0  0  0  0  0  0
   -3.1472    0.4891   -0.8754 C   0  0  0  0  0  0  0  0  0  0  0  0
   -4.5768    0.1338   -1.3857 C   0  0  0  0  0  0  0  0  0  0  0  0
   -2.6354    1.5239   -1.9252 C   0  0  0  0  0  0  0  0  0  0  0  0
   -3.2700    1.2249    0.5099 C   0  0  1  0  0  0  0  0  0  0  0  0
   -4.3752    0.6779    1.2696 O   0  0  0  0  0  0  0  0  0  0  0  0
   -4.9560    1.5001    2.1854 C   0  0  0  0  0  0  0  0  0  0  0  0
   -6.0741    0.7807    2.8753 C   0  0  0  0  0  0  0  0  0  0  0  0
   -4.6261    2.6529    2.4223 O   0  0  0  0  0  0  0  0  0  0  0  0
   -2.0192    1.1396    1.3913 C   0  0  0  0  0  0  0  0  0  0  0  0
   -0.7409    0.9121    0.6085 C   0  0  0  0  0  0  0  0  0  0  0  0
   -0.7162   -0.4497   -0.1502 C   0  0  1  0  0  0  0  0  0  0  0  0
   -0.2437   -1.5024    0.9061 C   0  0  0  0  0  0  0  0  0  0  0  0
    0.3480   -0.3898   -1.3350 C   0  0  1  0  0  0  0  0  0  0  0  0
    1.7148    0.2797   -1.0022 C   0  0  0  0  0  0  0  0  0  0  0  0
    2.4395   -0.4478   -0.0147 O   0  0  0  0  0  0  0  0  0  0  0  0
    3.6552    0.0445    0.3683 C   0  0  0  0  0  0  0  0  0  0  0  0
    4.3015   -0.7093    1.3554 C   0  0  0  0  0  0  0  0  0  0  0  0
    5.5547   -0.3288    1.8483 C   0  0  0  0  0  0  0  0  0  0  0  0
    6.1743    0.8166    1.3525 C   0  0  0  0  0  0  0  0  0  0  0  0
    7.4744    1.2603    1.8262 C   0  0  0  0  0  0  0  0  0  0  0  0
    8.0188    2.3671    1.3116 C   0  0  0  0  0  0  0  0  0  0  0  0
    7.3503    3.1680    0.2709 C   0  0  0  0  0  0  0  0  0  0  0  0
    7.8807    4.1772   -0.1786 O   0  0  0  0  0  0  0  0  0  0  0  0
    6.1091    2.7241   -0.1643 O   0  0  0  0  0  0  0  0  0  0  0  0
    5.5223    1.5581    0.3697 C   0  0  0  0  0  0  0  0  0  0  0  0
    4.2722    1.1894   -0.1300 C   0  0  0  0  0  0  0  0  0  0  0  0
    1.5613   -3.3230   -2.9195 H   0  0  0  0  0  0  0  0  0  0  0  0
    2.5627   -1.9197   -2.2788 H   0  0  0  0  0  0  0  0  0  0  0  0
   -0.8762   -2.8894   -3.2913 H   0  0  0  0  0  0  0  0  0  0  0  0
   -0.9857   -3.2818   -1.5783 H   0  0  0  0  0  0  0  0  0  0  0  0
   -1.9430   -0.7515   -2.9622 H   0  0  0  0  0  0  0  0  0  0  0  0
   -2.9704   -2.0484   -2.4184 H   0  0  0  0  0  0  0  0  0  0  0  0
   -3.1050   -1.5236    1.1446 H   0  0  0  0  0  0  0  0  0  0  0  0
   -2.3424   -2.8096    0.2092 H   0  0  0  0  0  0  0  0  0  0  0  0
   -3.8793   -2.1856   -0.2915 H   0  0  0  0  0  0  0  0  0  0  0  0
   -4.5489   -0.3262   -2.3790 H   0  0  0  0  0  0  0  0  0  0  0  0
   -5.1912    1.0391   -1.4691 H   0  0  0  0  0  0  0  0  0  0  0  0
   -5.1170   -0.5464   -0.7224 H   0  0  0  0  0  0  0  0  0  0  0  0
   -1.6002    1.8265   -1.7880 H   0  0  0  0  0  0  0  0  0  0  0  0
   -2.7307    1.1521   -2.9503 H   0  0  0  0  0  0  0  0  0  0  0  0
   -3.2363    2.4415   -1.8888 H   0  0  0  0  0  0  0  0  0  0  0  0
   -3.4902    2.2821    0.3102 H   0  0  0  0  0  0  0  0  0  0  0  0
   -5.6827   -0.0929    3.4025 H   0  0  0  0  0  0  0  0  0  0  0  0
   -6.5396    1.4492    3.6051 H   0  0  0  0  0  0  0  0  0  0  0  0
   -6.8299    0.4829    2.1441 H   0  0  0  0  0  0  0  0  0  0  0  0
   -2.1343    0.3636    2.1573 H   0  0  0  0  0  0  0  0  0  0  0  0
   -1.9256    2.0762    1.9561 H   0  0  0  0  0  0  0  0  0  0  0  0
    0.1035    0.9684    1.3086 H   0  0  0  0  0  0  0  0  0  0  0  0
   -0.5899    1.7572   -0.0678 H   0  0  0  0  0  0  0  0  0  0  0  0
    0.7150   -1.2325    1.3557 H   0  0  0  0  0  0  0  0  0  0  0  0
   -0.9367   -1.5761    1.7500 H   0  0  0  0  0  0  0  0  0  0  0  0
   -0.1259   -2.5041    0.4848 H   0  0  0  0  0  0  0  0  0  0  0  0
   -0.0704    0.2847   -2.0945 H   0  0  0  0  0  0  0  0  0  0  0  0
    1.5427    1.3039   -0.6524 H   0  0  0  0  0  0  0  0  0  0  0  0
    2.3086    0.3469   -1.9235 H   0  0  0  0  0  0  0  0  0  0  0  0
    3.8204   -1.6045    1.7445 H   0  0  0  0  0  0  0  0  0  0  0  0
    6.0294   -0.9355    2.6151 H   0  0  0  0  0  0  0  0  0  0  0  0
    7.9845    0.6862    2.5916 H   0  0  0  0  0  0  0  0  0  0  0  0
    8.9854    2.7322    1.6367 H   0  0  0  0  0  0  0  0  0  0  0  0
    3.8177    1.8077   -0.8952 H   0  0  0  0  0  0  0  0  0  0  0  0
  1  2  2  0
  2  3  1  0
  3  4  1  0
  4  5  1  0
  5  6  1  1
  5  7  1  0
  7  8  1  0
  7  9  1  0
  7 10  1  0
 10 11  1  0
 11 12  1  0
 12 13  1  0
 12 14  2  0
 10 15  1  0
 15 16  1  0
 16 17  1  0
 17 18  1  1
 17 19  1  0
 19 20  1  0
 20 21  1  0
 21 22  1  0
 22 23  1  0
 23 24  2  0
 24 25  1  0
 25 26  1  0
 26 27  2  0
 27 28  1  0
 28 29  2  0
 28 30  1  0
 30 31  1  0
 31 32  1  0
 19  2  1  0
 32 22  2  0
 17  5  1  0
 31 25  2  0
  1 33  1  0
  1 34  1  0
  3 35  1  0
  3 36  1  0
  4 37  1  0
  4 38  1  0
  6 39  1  0
  6 40  1  0
  6 41  1  0
  8 42  1  0
  8 43  1  0
  8 44  1  0
  9 45  1  0
  9 46  1  0
  9 47  1  0
 10 48  1  6
 13 49  1  0
 13 50  1  0
 13 51  1  0
 15 52  1  0
 15 53  1  0
 16 54  1  0
 16 55  1  0
 18 56  1  0
 18 57  1  0
 18 58  1  0
 19 59  1  6
 20 60  1  0
 20 61  1  0
 23 62  1  0
 24 63  1  0
 26 64  1  0
 27 65  1  0
 32 66  1  0
M  END
>  <Name>  (86) 
Polyanthinin

>  <PubChem ID>  (86) 
103743787

>  <CDB ID>  (86) 
CDB0086

>  <Smiles>  (86) 
C=C1CC[C@]2(C)C(C)(C)[C@@H](OC(C)=O)CC[C@]2(C)[C@H]1COc1ccc2ccc(=O)oc2c1

>  <Chemical class>  (86) 
7-Oxygenated Coumarins

>  <Natural source>  (86) 
Ferula polyanthum

>  <Molecular Formula>  (86) 
C27H34O5

>  <InChI-Key>  (86) 
FKTIVUFKTFDYDD-LONWNBDUSA-N

>  <Total Molweight>  (86) 
438.562

>  <cLogP>  (86) 
5.2466

>  <cLogS>  (86) 
-5.725

>  <H-Acceptors>  (86) 
5

>  <H-Donors>  (86) 
0

>  <Rotatable Bonds>  (86) 
5

>  <Polar Surface Area>  (86) 
61.83

$$$$
CDB0087
     RDKit          3D

 56 59  0  0  0  0  0  0  0  0999 V2000
   -3.9249   -1.8829    1.4394 C   0  0  0  0  0  0  0  0  0  0  0  0
   -4.0542   -0.7815    0.3622 C   0  0  0  0  0  0  0  0  0  0  0  0
   -2.8915    0.2927    0.4725 C   0  0  0  0  0  0  0  0  0  0  0  0
   -3.3279    1.7171    0.0391 C   0  0  0  0  0  0  0  0  0  0  0  0
   -2.3330    2.7910    0.5026 C   0  0  0  0  0  0  0  0  0  0  0  0
   -0.9041    2.3130    0.4576 C   0  0  0  0  0  0  0  0  0  0  0  0
    0.0089    2.8198    1.3016 C   0  0  0  0  0  0  0  0  0  0  0  0
   -0.6663    1.2420   -0.5944 C   0  0  0  0  0  0  0  0  0  0  0  0
   -1.4989   -0.0759   -0.2372 C   0  0  0  0  0  0  0  0  0  0  0  0
   -1.7421   -0.8172   -1.5809 C   0  0  0  0  0  0  0  0  0  0  0  0
   -2.7056   -1.9803   -1.4927 C   0  0  0  0  0  0  0  0  0  0  0  0
   -4.0349   -1.4730   -1.0033 C   0  0  0  0  0  0  0  0  0  0  0  0
   -5.0547   -1.6683   -1.6657 O   0  0  0  0  0  0  0  0  0  0  0  0
   -0.6838   -0.9845    0.7099 C   0  0  0  0  0  0  0  0  0  0  0  0
    0.8106    1.0488   -1.0468 C   0  0  0  0  0  0  0  0  0  0  0  0
    1.6320    0.4910   -0.0245 O   0  0  0  0  0  0  0  0  0  0  0  0
    2.9480    0.2689   -0.3182 C   0  0  0  0  0  0  0  0  0  0  0  0
    3.6826   -0.3117    0.7166 C   0  0  0  0  0  0  0  0  0  0  0  0
    5.0357   -0.5847    0.5316 C   0  0  0  0  0  0  0  0  0  0  0  0
    5.6818   -0.2915   -0.6656 C   0  0  0  0  0  0  0  0  0  0  0  0
    4.9473    0.2902   -1.6993 C   0  0  0  0  0  0  0  0  0  0  0  0
    3.5842    0.5697   -1.5258 C   0  0  0  0  0  0  0  0  0  0  0  0
    7.0958   -0.5995   -0.7980 C   0  0  0  0  0  0  0  0  0  0  0  0
    7.7449   -1.1567    0.2289 C   0  0  0  0  0  0  0  0  0  0  0  0
    7.0814   -1.4767    1.5056 C   0  0  0  0  0  0  0  0  0  0  0  0
    7.7105   -1.9885    2.4246 O   0  0  0  0  0  0  0  0  0  0  0  0
    5.7310   -1.1722    1.6066 O   0  0  0  0  0  0  0  0  0  0  0  0
   -5.4562   -0.1628    0.5795 C   0  0  0  0  0  0  0  0  0  0  0  0
   -4.8215   -2.5153    1.4629 H   0  0  0  0  0  0  0  0  0  0  0  0
   -3.8048   -1.4490    2.4380 H   0  0  0  0  0  0  0  0  0  0  0  0
   -3.0988   -2.5718    1.2625 H   0  0  0  0  0  0  0  0  0  0  0  0
   -2.6824    0.3868    1.5498 H   0  0  0  0  0  0  0  0  0  0  0  0
   -3.4491    1.7524   -1.0508 H   0  0  0  0  0  0  0  0  0  0  0  0
   -4.2924    2.0041    0.4668 H   0  0  0  0  0  0  0  0  0  0  0  0
   -2.4468    3.6774   -0.1326 H   0  0  0  0  0  0  0  0  0  0  0  0
   -2.5926    3.0914    1.5260 H   0  0  0  0  0  0  0  0  0  0  0  0
    1.0435    2.4949    1.3134 H   0  0  0  0  0  0  0  0  0  0  0  0
   -0.2573    3.5842    2.0266 H   0  0  0  0  0  0  0  0  0  0  0  0
   -1.1272    1.6653   -1.5022 H   0  0  0  0  0  0  0  0  0  0  0  0
   -2.1393   -0.1080   -2.3197 H   0  0  0  0  0  0  0  0  0  0  0  0
   -0.7938   -1.1868   -1.9887 H   0  0  0  0  0  0  0  0  0  0  0  0
   -2.3426   -2.7781   -0.8404 H   0  0  0  0  0  0  0  0  0  0  0  0
   -2.8438   -2.4171   -2.4884 H   0  0  0  0  0  0  0  0  0  0  0  0
   -1.2513   -1.8370    1.0755 H   0  0  0  0  0  0  0  0  0  0  0  0
    0.1869   -1.4156    0.2062 H   0  0  0  0  0  0  0  0  0  0  0  0
   -0.3391   -0.4318    1.5903 H   0  0  0  0  0  0  0  0  0  0  0  0
    1.2110    2.0285   -1.3404 H   0  0  0  0  0  0  0  0  0  0  0  0
    0.8269    0.3946   -1.9263 H   0  0  0  0  0  0  0  0  0  0  0  0
    3.2017   -0.5500    1.6611 H   0  0  0  0  0  0  0  0  0  0  0  0
    5.4208    0.5338   -2.6475 H   0  0  0  0  0  0  0  0  0  0  0  0
    3.0505    1.0249   -2.3540 H   0  0  0  0  0  0  0  0  0  0  0  0
    7.6046   -0.3727   -1.7282 H   0  0  0  0  0  0  0  0  0  0  0  0
    8.7984   -1.4024    0.1731 H   0  0  0  0  0  0  0  0  0  0  0  0
   -5.7331    0.5185   -0.2328 H   0  0  0  0  0  0  0  0  0  0  0  0
   -5.5089    0.3766    1.5317 H   0  0  0  0  0  0  0  0  0  0  0  0
   -6.2364   -0.9342    0.6009 H   0  0  0  0  0  0  0  0  0  0  0  0
  1  2  1  0
  2  3  1  0
  3  4  1  0
  4  5  1  0
  5  6  1  0
  6  7  2  0
  6  8  1  0
  8  9  1  0
  9 10  1  0
 10 11  1  0
 11 12  1  0
 12 13  2  0
  9 14  1  0
  8 15  1  0
 15 16  1  0
 16 17  1  0
 17 18  2  0
 18 19  1  0
 19 20  2  0
 20 21  1  0
 21 22  2  0
 20 23  1  0
 23 24  2  0
 24 25  1  0
 25 26  2  0
 25 27  1  0
  2 28  1  0
 12  2  1  0
  9  3  1  0
 22 17  1  0
 27 19  1  0
  1 29  1  0
  1 30  1  0
  1 31  1  0
  3 32  1  0
  4 33  1  0
  4 34  1  0
  5 35  1  0
  5 36  1  0
  7 37  1  0
  7 38  1  0
  8 39  1  0
 10 40  1  0
 10 41  1  0
 11 42  1  0
 11 43  1  0
 14 44  1  0
 14 45  1  0
 14 46  1  0
 15 47  1  0
 15 48  1  0
 18 49  1  0
 21 50  1  0
 22 51  1  0
 23 52  1  0
 24 53  1  0
 28 54  1  0
 28 55  1  0
 28 56  1  0
M  END
>  <Name>  (87) 
Mogoltadone

>  <PubChem ID>  (87) 
14865891

>  <CDB ID>  (87) 
CDB0087

>  <Smiles>  (87) 
CC1(C2CCC(=C)C(C2(CCC1=O)C)COC3=CC4=C(C=C3)C=CC(=O)O4)C

>  <Chemical class>  (87) 
7-Oxygenated Coumarins

>  <Natural source>  (87) 
Ferula mogoltavica

>  <Molecular Formula>  (87) 
C24H28O4

>  <InChI-Key>  (87) 
PJXNPYBRJFKRPB-UHFFFAOYSA-N

>  <Total Molweight>  (87) 
380.482

>  <cLogP>  (87) 
4.5742

>  <cLogS>  (87) 
-5.189

>  <H-Acceptors>  (87) 
4

>  <H-Donors>  (87) 
0

>  <Rotatable Bonds>  (87) 
3

>  <Polar Surface Area>  (87) 
52.6

$$$$
CDB0088
     RDKit          3D

 73 76  0  0  0  0  0  0  0  0999 V2000
   -8.0761   -1.9568    1.1298 C   0  0  0  0  0  0  0  0  0  0  0  0
   -6.6761   -1.4315    1.1717 C   0  0  0  0  0  0  0  0  0  0  0  0
   -5.9579   -1.0673    2.2544 C   0  0  0  0  0  0  0  0  0  0  0  0
   -6.4374   -1.1096    3.6776 C   0  0  0  0  0  0  0  0  0  0  0  0
   -4.5505   -0.5640    2.1234 C   0  0  0  0  0  0  0  0  0  0  0  0
   -3.8573   -0.2711    3.0874 O   0  0  0  0  0  0  0  0  0  0  0  0
   -4.1645   -0.4781    0.8252 O   0  0  0  0  0  0  0  0  0  0  0  0
   -2.8285    0.0056    0.5781 C   0  0  0  0  0  0  0  0  0  0  0  0
   -1.8380   -1.1422    0.7037 C   0  0  0  0  0  0  0  0  0  0  0  0
   -0.4018   -0.6319    0.6715 C   0  0  0  0  0  0  0  0  0  0  0  0
   -0.1134    0.5076   -0.3706 C   0  0  0  0  0  0  0  0  0  0  0  0
   -1.2740    0.6103   -1.4138 C   0  0  0  0  0  0  0  0  0  0  0  0
   -2.7520    0.6607   -0.8369 C   0  0  0  0  0  0  0  0  0  0  0  0
   -3.3408    2.0861   -0.7135 C   0  0  0  0  0  0  0  0  0  0  0  0
   -3.6724   -0.0900   -1.8403 C   0  0  0  0  0  0  0  0  0  0  0  0
   -1.0041    1.6735   -2.5026 C   0  0  0  0  0  0  0  0  0  0  0  0
    0.4653    1.9195   -2.8243 C   0  0  0  0  0  0  0  0  0  0  0  0
    1.3954    0.7371   -2.5712 C   0  0  0  0  0  0  0  0  0  0  0  0
    1.2281    0.1185   -1.1359 C   0  0  0  0  0  0  0  0  0  0  0  0
    2.4889    0.2705   -0.2521 C   0  0  0  0  0  0  0  0  0  0  0  0
    3.5593   -0.4648   -0.8640 O   0  0  0  0  0  0  0  0  0  0  0  0
    4.7619   -0.4703   -0.2124 C   0  0  0  0  0  0  0  0  0  0  0  0
    5.0593    0.2108    0.9657 C   0  0  0  0  0  0  0  0  0  0  0  0
    6.3426    0.1055    1.5049 C   0  0  0  0  0  0  0  0  0  0  0  0
    7.3380   -0.6592    0.9008 C   0  0  0  0  0  0  0  0  0  0  0  0
    7.0376   -1.3383   -0.2784 C   0  0  0  0  0  0  0  0  0  0  0  0
    5.7547   -1.2414   -0.8292 C   0  0  0  0  0  0  0  0  0  0  0  0
    8.6523   -0.7225    1.5175 C   0  0  0  0  0  0  0  0  0  0  0  0
    8.8805   -0.0487    2.6489 C   0  0  0  0  0  0  0  0  0  0  0  0
    7.8444    0.7660    3.3080 C   0  0  0  0  0  0  0  0  0  0  0  0
    8.0900    1.3687    4.3464 O   0  0  0  0  0  0  0  0  0  0  0  0
    6.5978    0.8110    2.6989 O   0  0  0  0  0  0  0  0  0  0  0  0
    1.1899   -0.3334   -3.6589 C   0  0  0  0  0  0  0  0  0  0  0  0
    2.7202    1.2456   -2.7787 O   0  0  0  0  0  0  0  0  0  0  0  0
    0.0494    1.8310    0.4192 C   0  0  0  0  0  0  0  0  0  0  0  0
   -8.0858   -2.9307    0.6298 H   0  0  0  0  0  0  0  0  0  0  0  0
   -8.7077   -1.2737    0.5532 H   0  0  0  0  0  0  0  0  0  0  0  0
   -8.5313   -2.0866    2.1127 H   0  0  0  0  0  0  0  0  0  0  0  0
   -6.2252   -1.3570    0.1827 H   0  0  0  0  0  0  0  0  0  0  0  0
   -7.4777   -1.4248    3.7786 H   0  0  0  0  0  0  0  0  0  0  0  0
   -6.3614   -0.1166    4.1343 H   0  0  0  0  0  0  0  0  0  0  0  0
   -5.8281   -1.8071    4.2625 H   0  0  0  0  0  0  0  0  0  0  0  0
   -2.5882    0.7660    1.3320 H   0  0  0  0  0  0  0  0  0  0  0  0
   -1.9997   -1.8723   -0.0990 H   0  0  0  0  0  0  0  0  0  0  0  0
   -2.0018   -1.7016    1.6325 H   0  0  0  0  0  0  0  0  0  0  0  0
    0.2401   -1.5048    0.5007 H   0  0  0  0  0  0  0  0  0  0  0  0
   -0.1377   -0.2862    1.6799 H   0  0  0  0  0  0  0  0  0  0  0  0
   -1.2224   -0.3538   -1.9434 H   0  0  0  0  0  0  0  0  0  0  0  0
   -4.3098    2.0676   -0.2002 H   0  0  0  0  0  0  0  0  0  0  0  0
   -3.5198    2.5419   -1.6933 H   0  0  0  0  0  0  0  0  0  0  0  0
   -2.6851    2.7507   -0.1444 H   0  0  0  0  0  0  0  0  0  0  0  0
   -3.5851    0.3291   -2.8487 H   0  0  0  0  0  0  0  0  0  0  0  0
   -4.7288   -0.0169   -1.5584 H   0  0  0  0  0  0  0  0  0  0  0  0
   -3.4168   -1.1533   -1.9000 H   0  0  0  0  0  0  0  0  0  0  0  0
   -1.5230    1.3725   -3.4211 H   0  0  0  0  0  0  0  0  0  0  0  0
   -1.4202    2.6469   -2.2276 H   0  0  0  0  0  0  0  0  0  0  0  0
    0.5530    2.2583   -3.8660 H   0  0  0  0  0  0  0  0  0  0  0  0
    0.8257    2.7829   -2.2507 H   0  0  0  0  0  0  0  0  0  0  0  0
    1.1525   -0.9641   -1.3228 H   0  0  0  0  0  0  0  0  0  0  0  0
    2.7621    1.3291   -0.1662 H   0  0  0  0  0  0  0  0  0  0  0  0
    2.3009   -0.1470    0.7435 H   0  0  0  0  0  0  0  0  0  0  0  0
    4.3307    0.8254    1.4819 H   0  0  0  0  0  0  0  0  0  0  0  0
    7.7866   -1.9449   -0.7810 H   0  0  0  0  0  0  0  0  0  0  0  0
    5.5269   -1.7749   -1.7497 H   0  0  0  0  0  0  0  0  0  0  0  0
    9.4302   -1.3157    1.0498 H   0  0  0  0  0  0  0  0  0  0  0  0
    9.8454   -0.0687    3.1407 H   0  0  0  0  0  0  0  0  0  0  0  0
    1.9229   -1.1415   -3.5494 H   0  0  0  0  0  0  0  0  0  0  0  0
    0.1895   -0.7732   -3.6344 H   0  0  0  0  0  0  0  0  0  0  0  0
    1.3535    0.0895   -4.6572 H   0  0  0  0  0  0  0  0  0  0  0  0
    3.3487    0.5256   -2.5755 H   0  0  0  0  0  0  0  0  0  0  0  0
    0.2932    2.6827   -0.2168 H   0  0  0  0  0  0  0  0  0  0  0  0
    0.8417    1.7583    1.1722 H   0  0  0  0  0  0  0  0  0  0  0  0
   -0.8586    2.0905    0.9681 H   0  0  0  0  0  0  0  0  0  0  0  0
  1  2  1  0
  2  3  2  3
  3  4  1  0
  3  5  1  0
  5  6  2  0
  5  7  1  0
  7  8  1  0
  8  9  1  0
  9 10  1  0
 10 11  1  0
 11 12  1  0
 12 13  1  0
 13 14  1  0
 13 15  1  0
 12 16  1  0
 16 17  1  0
 17 18  1  0
 18 19  1  0
 19 20  1  0
 20 21  1  0
 21 22  1  0
 22 23  2  0
 23 24  1  0
 24 25  2  0
 25 26  1  0
 26 27  2  0
 25 28  1  0
 28 29  2  0
 29 30  1  0
 30 31  2  0
 30 32  1  0
 18 33  1  0
 18 34  1  0
 11 35  1  0
 13  8  1  0
 19 11  1  0
 27 22  1  0
 32 24  1  0
  1 36  1  0
  1 37  1  0
  1 38  1  0
  2 39  1  0
  4 40  1  0
  4 41  1  0
  4 42  1  0
  8 43  1  0
  9 44  1  0
  9 45  1  0
 10 46  1  0
 10 47  1  0
 12 48  1  0
 14 49  1  0
 14 50  1  0
 14 51  1  0
 15 52  1  0
 15 53  1  0
 15 54  1  0
 16 55  1  0
 16 56  1  0
 17 57  1  0
 17 58  1  0
 19 59  1  0
 20 60  1  0
 20 61  1  0
 23 62  1  0
 26 63  1  0
 27 64  1  0
 28 65  1  0
 29 66  1  0
 33 67  1  0
 33 68  1  0
 33 69  1  0
 34 70  1  0
 35 71  1  0
 35 72  1  0
 35 73  1  0
M  END
>  <Name>  (88) 
Isosamarcandin

>  <PubChem ID>  (88) 
6442630

>  <CDB ID>  (88) 
CDB0088

>  <Smiles>  (88) 
CC=C(C)C(=O)OC1CCC2(C(C1(C)C)CCC(C2COC3=CC4=C(C=C3)C=CC(=O)O4)(C)O)C

>  <Chemical class>  (88) 
7-Oxygenated Coumarins

>  <Natural source>  (88) 
Ferula microloba

>  <Molecular Formula>  (88) 
C29H38O6

>  <InChI-Key>  (88) 
UFPQYBAJCMMCRR-UHFFFAOYSA-N

>  <Total Molweight>  (88) 
482.615

>  <cLogP>  (88) 
5.3809

>  <cLogS>  (88) 
-5.631

>  <H-Acceptors>  (88) 
6

>  <H-Donors>  (88) 
1

>  <Rotatable Bonds>  (88) 
6

>  <Polar Surface Area>  (88) 
82.06

$$$$
CDB0089
     RDKit          3D

 61 64  0  0  0  0  0  0  0  0999 V2000
   -4.6319   -1.7000   -1.0067 C   0  0  0  0  0  0  0  0  0  0  0  0
   -3.9468   -0.4143   -0.4556 C   0  0  0  0  0  0  0  0  0  0  0  0
   -2.7722   -0.8380    0.5424 C   0  0  0  0  0  0  0  0  0  0  0  0
   -2.7876   -0.1688    1.9318 C   0  0  0  0  0  0  0  0  0  0  0  0
   -2.1771    1.2247    1.9464 C   0  0  0  0  0  0  0  0  0  0  0  0
   -0.7042    1.2019    1.5258 C   0  0  0  0  0  0  0  0  0  0  0  0
   -0.5653    0.5777    0.1014 C   0  0  0  0  0  0  0  0  0  0  0  0
   -1.3045   -0.8257   -0.0723 C   0  0  0  0  0  0  0  0  0  0  0  0
   -1.4073   -1.2037   -1.5725 C   0  0  0  0  0  0  0  0  0  0  0  0
   -2.2656   -0.2573   -2.4051 C   0  0  0  0  0  0  0  0  0  0  0  0
   -3.3959    0.4275   -1.6333 C   0  0  0  0  0  0  0  0  0  0  0  0
   -4.4057    0.7597   -2.5876 O   0  0  0  0  0  0  0  0  0  0  0  0
   -0.4961   -1.9701    0.5982 C   0  0  0  0  0  0  0  0  0  0  0  0
    0.9074    0.5899   -0.4027 C   0  0  0  0  0  0  0  0  0  0  0  0
    1.7831    0.0128    0.5664 O   0  0  0  0  0  0  0  0  0  0  0  0
    3.1115   -0.0605    0.2514 C   0  0  0  0  0  0  0  0  0  0  0  0
    3.7099    0.4395   -0.9026 C   0  0  0  0  0  0  0  0  0  0  0  0
    5.0870    0.2867   -1.0730 C   0  0  0  0  0  0  0  0  0  0  0  0
    5.8836   -0.3504   -0.1244 C   0  0  0  0  0  0  0  0  0  0  0  0
    5.2817   -0.8484    1.0295 C   0  0  0  0  0  0  0  0  0  0  0  0
    3.9021   -0.7015    1.2130 C   0  0  0  0  0  0  0  0  0  0  0  0
    7.3108   -0.4739   -0.3686 C   0  0  0  0  0  0  0  0  0  0  0  0
    7.8307    0.0251   -1.4942 C   0  0  0  0  0  0  0  0  0  0  0  0
    7.0099    0.7045   -2.5121 C   0  0  0  0  0  0  0  0  0  0  0  0
    7.5213    1.1514   -3.5322 O   0  0  0  0  0  0  0  0  0  0  0  0
    5.6494    0.8088   -2.2560 O   0  0  0  0  0  0  0  0  0  0  0  0
   -0.1549    2.6356    1.5866 C   0  0  0  0  0  0  0  0  0  0  0  0
    0.0044    0.4513    2.5121 O   0  0  0  0  0  0  0  0  0  0  0  0
   -5.0956    0.3622    0.2360 C   0  0  0  0  0  0  0  0  0  0  0  0
   -3.9413   -2.3565   -1.5395 H   0  0  0  0  0  0  0  0  0  0  0  0
   -5.0703   -2.2867   -0.1905 H   0  0  0  0  0  0  0  0  0  0  0  0
   -5.4449   -1.4563   -1.7004 H   0  0  0  0  0  0  0  0  0  0  0  0
   -2.9933   -1.8916    0.7733 H   0  0  0  0  0  0  0  0  0  0  0  0
   -2.2309   -0.8047    2.6326 H   0  0  0  0  0  0  0  0  0  0  0  0
   -3.7960   -0.1350    2.3535 H   0  0  0  0  0  0  0  0  0  0  0  0
   -2.2644    1.6147    2.9689 H   0  0  0  0  0  0  0  0  0  0  0  0
   -2.7436    1.9002    1.2970 H   0  0  0  0  0  0  0  0  0  0  0  0
   -1.0738    1.2778   -0.5694 H   0  0  0  0  0  0  0  0  0  0  0  0
   -1.8250   -2.2151   -1.6544 H   0  0  0  0  0  0  0  0  0  0  0  0
   -0.4210   -1.2926   -2.0405 H   0  0  0  0  0  0  0  0  0  0  0  0
   -1.6295    0.5222   -2.8449 H   0  0  0  0  0  0  0  0  0  0  0  0
   -2.6639   -0.8078   -3.2676 H   0  0  0  0  0  0  0  0  0  0  0  0
   -3.0345    1.3852   -1.2441 H   0  0  0  0  0  0  0  0  0  0  0  0
   -5.0076    1.4038   -2.1789 H   0  0  0  0  0  0  0  0  0  0  0  0
   -0.3442   -1.8104    1.6673 H   0  0  0  0  0  0  0  0  0  0  0  0
   -1.0166   -2.9301    0.4933 H   0  0  0  0  0  0  0  0  0  0  0  0
    0.4839   -2.1041    0.1298 H   0  0  0  0  0  0  0  0  0  0  0  0
    1.2043    1.6316   -0.5781 H   0  0  0  0  0  0  0  0  0  0  0  0
    0.9969    0.0605   -1.3550 H   0  0  0  0  0  0  0  0  0  0  0  0
    3.1470    0.9469   -1.6774 H   0  0  0  0  0  0  0  0  0  0  0  0
    5.8679   -1.3523    1.7939 H   0  0  0  0  0  0  0  0  0  0  0  0
    3.4389   -1.0948    2.1159 H   0  0  0  0  0  0  0  0  0  0  0  0
    7.9343   -0.9701    0.3669 H   0  0  0  0  0  0  0  0  0  0  0  0
    8.8889   -0.0458   -1.7147 H   0  0  0  0  0  0  0  0  0  0  0  0
   -0.3420    3.0805    2.5712 H   0  0  0  0  0  0  0  0  0  0  0  0
    0.9320    2.6578    1.4559 H   0  0  0  0  0  0  0  0  0  0  0  0
   -0.6151    3.2770    0.8281 H   0  0  0  0  0  0  0  0  0  0  0  0
    0.8962    0.2692    2.1568 H   0  0  0  0  0  0  0  0  0  0  0  0
   -5.5146   -0.2041    1.0749 H   0  0  0  0  0  0  0  0  0  0  0  0
   -5.9308    0.5446   -0.4501 H   0  0  0  0  0  0  0  0  0  0  0  0
   -4.7691    1.3394    0.6011 H   0  0  0  0  0  0  0  0  0  0  0  0
  1  2  1  0
  2  3  1  0
  3  4  1  0
  4  5  1  0
  5  6  1  0
  6  7  1  0
  7  8  1  0
  8  9  1  0
  9 10  1  0
 10 11  1  0
 11 12  1  0
  8 13  1  0
  7 14  1  0
 14 15  1  0
 15 16  1  0
 16 17  2  0
 17 18  1  0
 18 19  2  0
 19 20  1  0
 20 21  2  0
 19 22  1  0
 22 23  2  0
 23 24  1  0
 24 25  2  0
 24 26  1  0
  6 27  1  0
  6 28  1  0
  2 29  1  0
 11  2  1  0
  8  3  1  0
 21 16  1  0
 26 18  1  0
  1 30  1  0
  1 31  1  0
  1 32  1  0
  3 33  1  0
  4 34  1  0
  4 35  1  0
  5 36  1  0
  5 37  1  0
  7 38  1  0
  9 39  1  0
  9 40  1  0
 10 41  1  0
 10 42  1  0
 11 43  1  0
 12 44  1  0
 13 45  1  0
 13 46  1  0
 13 47  1  0
 14 48  1  0
 14 49  1  0
 17 50  1  0
 20 51  1  0
 21 52  1  0
 22 53  1  0
 23 54  1  0
 27 55  1  0
 27 56  1  0
 27 57  1  0
 28 58  1  0
 29 59  1  0
 29 60  1  0
 29 61  1  0
M  END
>  <Name>  (89) 
Samarcandin (Mogoltavidin)

>  <PubChem ID>  (89) 
71587098

>  <CDB ID>  (89) 
CDB0089

>  <Smiles>  (89) 
CC1(C2CCC(C(C2(CCC1O)C)COC3=CC4=C(C=C3)C=CC(=O)O4)(C)O)C

>  <Chemical class>  (89) 
7-Oxygenated Coumarins

>  <Natural source>  (89) 
Ferula samarcandica

>  <Molecular Formula>  (89) 
C24H32O5

>  <InChI-Key>  (89) 
WNANPKYNOALKIV-UHFFFAOYSA-N

>  <Total Molweight>  (89) 
400.513

>  <cLogP>  (89) 
3.6333

>  <cLogS>  (89) 
-4.785

>  <H-Acceptors>  (89) 
5

>  <H-Donors>  (89) 
2

>  <Rotatable Bonds>  (89) 
3

>  <Polar Surface Area>  (89) 
75.99

$$$$
CDB0090
     RDKit          3D

 59 62  0  0  0  0  0  0  0  0999 V2000
   -3.7875    1.5829    1.6039 C   0  0  0  0  0  0  0  0  0  0  0  0
   -3.8696    0.9510    0.2017 C   0  0  0  0  0  0  0  0  0  0  0  0
   -2.9390   -0.3186    0.0368 C   0  0  0  0  0  0  0  0  0  0  0  0
   -3.2864   -1.0885   -1.2605 C   0  0  0  0  0  0  0  0  0  0  0  0
   -2.5623   -2.4166   -1.4344 C   0  0  0  0  0  0  0  0  0  0  0  0
   -1.1709   -2.4768   -0.7968 C   0  0  0  0  0  0  0  0  0  0  0  0
   -0.5240   -1.0560   -0.7511 C   0  0  0  0  0  0  0  0  0  0  0  0
   -1.3773   -0.0191    0.1300 C   0  0  0  0  0  0  0  0  0  0  0  0
   -1.0829    1.4467   -0.3334 C   0  0  0  0  0  0  0  0  0  0  0  0
   -2.0604    2.0016   -1.3547 C   0  0  0  0  0  0  0  0  0  0  0  0
   -3.4701    2.0256   -0.8149 C   0  0  0  0  0  0  0  0  0  0  0  0
   -4.2644    2.8856   -1.2013 O   0  0  0  0  0  0  0  0  0  0  0  0
   -0.9306   -0.1208    1.6180 C   0  0  0  0  0  0  0  0  0  0  0  0
    0.9828   -1.1660   -0.3661 C   0  0  0  0  0  0  0  0  0  0  0  0
    1.6176    0.1087   -0.3536 O   0  0  0  0  0  0  0  0  0  0  0  0
    2.9307    0.1624    0.0215 C   0  0  0  0  0  0  0  0  0  0  0  0
    3.4611    1.4512    0.0937 C   0  0  0  0  0  0  0  0  0  0  0  0
    4.7916    1.6285    0.4656 C   0  0  0  0  0  0  0  0  0  0  0  0
    5.6146    0.5478    0.7680 C   0  0  0  0  0  0  0  0  0  0  0  0
    5.0848   -0.7405    0.6927 C   0  0  0  0  0  0  0  0  0  0  0  0
    3.7467   -0.9326    0.3198 C   0  0  0  0  0  0  0  0  0  0  0  0
    6.9944    0.7972    1.1496 C   0  0  0  0  0  0  0  0  0  0  0  0
    7.4436    2.0548    1.2024 C   0  0  0  0  0  0  0  0  0  0  0  0
    6.5907    3.2147    0.8866 C   0  0  0  0  0  0  0  0  0  0  0  0
    7.0391    4.3537    0.9461 O   0  0  0  0  0  0  0  0  0  0  0  0
    5.2771    2.9495    0.5249 O   0  0  0  0  0  0  0  0  0  0  0  0
   -0.3477   -3.5248   -1.5651 C   0  0  0  0  0  0  0  0  0  0  0  0
   -1.3530   -2.9817    0.5298 O   0  0  0  0  0  0  0  0  0  0  0  0
   -5.3589    0.5953   -0.0241 C   0  0  0  0  0  0  0  0  0  0  0  0
   -2.8479    2.1099    1.7811 H   0  0  0  0  0  0  0  0  0  0  0  0
   -4.5683    2.3413    1.7422 H   0  0  0  0  0  0  0  0  0  0  0  0
   -3.9236    0.8281    2.3857 H   0  0  0  0  0  0  0  0  0  0  0  0
   -3.1955   -1.0002    0.8613 H   0  0  0  0  0  0  0  0  0  0  0  0
   -3.0820   -0.4664   -2.1375 H   0  0  0  0  0  0  0  0  0  0  0  0
   -4.3547   -1.3214   -1.3077 H   0  0  0  0  0  0  0  0  0  0  0  0
   -3.1915   -3.2138   -1.0156 H   0  0  0  0  0  0  0  0  0  0  0  0
   -2.5026   -2.6106   -2.5136 H   0  0  0  0  0  0  0  0  0  0  0  0
   -0.5368   -0.6655   -1.7802 H   0  0  0  0  0  0  0  0  0  0  0  0
   -0.0855    1.5399   -0.7662 H   0  0  0  0  0  0  0  0  0  0  0  0
   -1.0747    2.1205    0.5322 H   0  0  0  0  0  0  0  0  0  0  0  0
   -1.7752    3.0324   -1.5953 H   0  0  0  0  0  0  0  0  0  0  0  0
   -2.0360    1.4285   -2.2850 H   0  0  0  0  0  0  0  0  0  0  0  0
   -1.0192   -1.1366    2.0097 H   0  0  0  0  0  0  0  0  0  0  0  0
    0.1067    0.2003    1.7552 H   0  0  0  0  0  0  0  0  0  0  0  0
   -1.5250    0.5117    2.2783 H   0  0  0  0  0  0  0  0  0  0  0  0
    1.0833   -1.6486    0.6131 H   0  0  0  0  0  0  0  0  0  0  0  0
    1.4960   -1.7765   -1.1170 H   0  0  0  0  0  0  0  0  0  0  0  0
    2.8403    2.3123   -0.1371 H   0  0  0  0  0  0  0  0  0  0  0  0
    5.7009   -1.6073    0.9202 H   0  0  0  0  0  0  0  0  0  0  0  0
    3.3765   -1.9514    0.2690 H   0  0  0  0  0  0  0  0  0  0  0  0
    7.6406   -0.0406    1.3864 H   0  0  0  0  0  0  0  0  0  0  0  0
    8.4644    2.2856    1.4820 H   0  0  0  0  0  0  0  0  0  0  0  0
    0.5754   -3.7882   -1.0380 H   0  0  0  0  0  0  0  0  0  0  0  0
   -0.9080   -4.4635   -1.6556 H   0  0  0  0  0  0  0  0  0  0  0  0
   -0.0955   -3.1780   -2.5725 H   0  0  0  0  0  0  0  0  0  0  0  0
   -0.5019   -3.2987    0.8748 H   0  0  0  0  0  0  0  0  0  0  0  0
   -5.6487   -0.2815    0.5652 H   0  0  0  0  0  0  0  0  0  0  0  0
   -6.0192    1.4206    0.2696 H   0  0  0  0  0  0  0  0  0  0  0  0
   -5.5819    0.4026   -1.0790 H   0  0  0  0  0  0  0  0  0  0  0  0
  1  2  1  0
  2  3  1  0
  3  4  1  0
  4  5  1  0
  5  6  1  0
  6  7  1  0
  7  8  1  0
  8  9  1  0
  9 10  1  0
 10 11  1  0
 11 12  2  0
  8 13  1  0
  7 14  1  0
 14 15  1  0
 15 16  1  0
 16 17  2  0
 17 18  1  0
 18 19  2  0
 19 20  1  0
 20 21  2  0
 19 22  1  0
 22 23  2  0
 23 24  1  0
 24 25  2  0
 24 26  1  0
  6 27  1  0
  6 28  1  0
  2 29  1  0
 11  2  1  0
  8  3  1  0
 21 16  1  0
 26 18  1  0
  1 30  1  0
  1 31  1  0
  1 32  1  0
  3 33  1  0
  4 34  1  0
  4 35  1  0
  5 36  1  0
  5 37  1  0
  7 38  1  0
  9 39  1  0
  9 40  1  0
 10 41  1  0
 10 42  1  0
 13 43  1  0
 13 44  1  0
 13 45  1  0
 14 46  1  0
 14 47  1  0
 17 48  1  0
 20 49  1  0
 21 50  1  0
 22 51  1  0
 23 52  1  0
 27 53  1  0
 27 54  1  0
 27 55  1  0
 28 56  1  0
 29 57  1  0
 29 58  1  0
 29 59  1  0
M  END
>  <Name>  (90) 
Samarcandone

>  <PubChem ID>  (90) 
101285185

>  <CDB ID>  (90) 
CDB0090

>  <Smiles>  (90) 
CC1(C2CCC(C(C2(CCC1=O)C)COC3=CC4=C(C=C3)C=CC(=O)O4)(C)O)C

>  <Chemical class>  (90) 
7-Oxygenated Coumarins

>  <Natural source>  (90) 
Ferula samarcandica

>  <Molecular Formula>  (90) 
C24H30O5

>  <InChI-Key>  (90) 
KWFSFXRPFGONDD-UHFFFAOYSA-N

>  <Total Molweight>  (90) 
398.497

>  <cLogP>  (90) 
3.777

>  <cLogS>  (90) 
-4.836

>  <H-Acceptors>  (90) 
5

>  <H-Donors>  (90) 
1

>  <Rotatable Bonds>  (90) 
3

>  <Polar Surface Area>  (90) 
72.83

$$$$
CDB0091
     RDKit          3D

 61 64  0  0  0  0  0  0  0  0999 V2000
   -4.6319   -1.7000   -1.0067 C   0  0  0  0  0  0  0  0  0  0  0  0
   -3.9468   -0.4143   -0.4556 C   0  0  0  0  0  0  0  0  0  0  0  0
   -2.7722   -0.8380    0.5424 C   0  0  0  0  0  0  0  0  0  0  0  0
   -2.7876   -0.1688    1.9318 C   0  0  0  0  0  0  0  0  0  0  0  0
   -2.1771    1.2247    1.9464 C   0  0  0  0  0  0  0  0  0  0  0  0
   -0.7042    1.2019    1.5258 C   0  0  0  0  0  0  0  0  0  0  0  0
   -0.5653    0.5777    0.1014 C   0  0  0  0  0  0  0  0  0  0  0  0
   -1.3045   -0.8257   -0.0723 C   0  0  0  0  0  0  0  0  0  0  0  0
   -1.4073   -1.2037   -1.5725 C   0  0  0  0  0  0  0  0  0  0  0  0
   -2.2656   -0.2573   -2.4051 C   0  0  0  0  0  0  0  0  0  0  0  0
   -3.3959    0.4275   -1.6333 C   0  0  0  0  0  0  0  0  0  0  0  0
   -4.4057    0.7597   -2.5876 O   0  0  0  0  0  0  0  0  0  0  0  0
   -0.4961   -1.9701    0.5982 C   0  0  0  0  0  0  0  0  0  0  0  0
    0.9074    0.5899   -0.4027 C   0  0  0  0  0  0  0  0  0  0  0  0
    1.7831    0.0128    0.5664 O   0  0  0  0  0  0  0  0  0  0  0  0
    3.1115   -0.0605    0.2514 C   0  0  0  0  0  0  0  0  0  0  0  0
    3.7099    0.4395   -0.9026 C   0  0  0  0  0  0  0  0  0  0  0  0
    5.0870    0.2867   -1.0730 C   0  0  0  0  0  0  0  0  0  0  0  0
    5.8836   -0.3504   -0.1244 C   0  0  0  0  0  0  0  0  0  0  0  0
    5.2817   -0.8484    1.0295 C   0  0  0  0  0  0  0  0  0  0  0  0
    3.9021   -0.7015    1.2130 C   0  0  0  0  0  0  0  0  0  0  0  0
    7.3108   -0.4739   -0.3686 C   0  0  0  0  0  0  0  0  0  0  0  0
    7.8307    0.0251   -1.4942 C   0  0  0  0  0  0  0  0  0  0  0  0
    7.0099    0.7045   -2.5121 C   0  0  0  0  0  0  0  0  0  0  0  0
    7.5213    1.1514   -3.5322 O   0  0  0  0  0  0  0  0  0  0  0  0
    5.6494    0.8088   -2.2560 O   0  0  0  0  0  0  0  0  0  0  0  0
   -0.1549    2.6356    1.5866 C   0  0  0  0  0  0  0  0  0  0  0  0
    0.0044    0.4513    2.5121 O   0  0  0  0  0  0  0  0  0  0  0  0
   -5.0956    0.3622    0.2360 C   0  0  0  0  0  0  0  0  0  0  0  0
   -3.9413   -2.3565   -1.5395 H   0  0  0  0  0  0  0  0  0  0  0  0
   -5.0703   -2.2867   -0.1905 H   0  0  0  0  0  0  0  0  0  0  0  0
   -5.4449   -1.4563   -1.7004 H   0  0  0  0  0  0  0  0  0  0  0  0
   -2.9933   -1.8916    0.7733 H   0  0  0  0  0  0  0  0  0  0  0  0
   -2.2309   -0.8047    2.6326 H   0  0  0  0  0  0  0  0  0  0  0  0
   -3.7960   -0.1350    2.3535 H   0  0  0  0  0  0  0  0  0  0  0  0
   -2.2644    1.6147    2.9689 H   0  0  0  0  0  0  0  0  0  0  0  0
   -2.7436    1.9002    1.2970 H   0  0  0  0  0  0  0  0  0  0  0  0
   -1.0738    1.2778   -0.5694 H   0  0  0  0  0  0  0  0  0  0  0  0
   -1.8250   -2.2151   -1.6544 H   0  0  0  0  0  0  0  0  0  0  0  0
   -0.4210   -1.2926   -2.0405 H   0  0  0  0  0  0  0  0  0  0  0  0
   -1.6295    0.5222   -2.8449 H   0  0  0  0  0  0  0  0  0  0  0  0
   -2.6639   -0.8078   -3.2676 H   0  0  0  0  0  0  0  0  0  0  0  0
   -3.0345    1.3852   -1.2441 H   0  0  0  0  0  0  0  0  0  0  0  0
   -5.0076    1.4038   -2.1789 H   0  0  0  0  0  0  0  0  0  0  0  0
   -0.3442   -1.8104    1.6673 H   0  0  0  0  0  0  0  0  0  0  0  0
   -1.0166   -2.9301    0.4933 H   0  0  0  0  0  0  0  0  0  0  0  0
    0.4839   -2.1041    0.1298 H   0  0  0  0  0  0  0  0  0  0  0  0
    1.2043    1.6316   -0.5781 H   0  0  0  0  0  0  0  0  0  0  0  0
    0.9969    0.0605   -1.3550 H   0  0  0  0  0  0  0  0  0  0  0  0
    3.1470    0.9469   -1.6774 H   0  0  0  0  0  0  0  0  0  0  0  0
    5.8679   -1.3523    1.7939 H   0  0  0  0  0  0  0  0  0  0  0  0
    3.4389   -1.0948    2.1159 H   0  0  0  0  0  0  0  0  0  0  0  0
    7.9343   -0.9701    0.3669 H   0  0  0  0  0  0  0  0  0  0  0  0
    8.8889   -0.0458   -1.7147 H   0  0  0  0  0  0  0  0  0  0  0  0
   -0.3420    3.0805    2.5712 H   0  0  0  0  0  0  0  0  0  0  0  0
    0.9320    2.6578    1.4559 H   0  0  0  0  0  0  0  0  0  0  0  0
   -0.6151    3.2770    0.8281 H   0  0  0  0  0  0  0  0  0  0  0  0
    0.8962    0.2692    2.1568 H   0  0  0  0  0  0  0  0  0  0  0  0
   -5.5146   -0.2041    1.0749 H   0  0  0  0  0  0  0  0  0  0  0  0
   -5.9308    0.5446   -0.4501 H   0  0  0  0  0  0  0  0  0  0  0  0
   -4.7691    1.3394    0.6011 H   0  0  0  0  0  0  0  0  0  0  0  0
  1  2  1  0
  2  3  1  0
  3  4  1  0
  4  5  1  0
  5  6  1  0
  6  7  1  0
  7  8  1  0
  8  9  1  0
  9 10  1  0
 10 11  1  0
 11 12  1  0
  8 13  1  0
  7 14  1  0
 14 15  1  0
 15 16  1  0
 16 17  2  0
 17 18  1  0
 18 19  2  0
 19 20  1  0
 20 21  2  0
 19 22  1  0
 22 23  2  0
 23 24  1  0
 24 25  2  0
 24 26  1  0
  6 27  1  0
  6 28  1  0
  2 29  1  0
 11  2  1  0
  8  3  1  0
 21 16  1  0
 26 18  1  0
  1 30  1  0
  1 31  1  0
  1 32  1  0
  3 33  1  0
  4 34  1  0
  4 35  1  0
  5 36  1  0
  5 37  1  0
  7 38  1  0
  9 39  1  0
  9 40  1  0
 10 41  1  0
 10 42  1  0
 11 43  1  0
 12 44  1  0
 13 45  1  0
 13 46  1  0
 13 47  1  0
 14 48  1  0
 14 49  1  0
 17 50  1  0
 20 51  1  0
 21 52  1  0
 22 53  1  0
 23 54  1  0
 27 55  1  0
 27 56  1  0
 27 57  1  0
 28 58  1  0
 29 59  1  0
 29 60  1  0
 29 61  1  0
M  END
>  <Name>  (91) 
Nevskin

>  <PubChem ID>  (91) 
495442

>  <CDB ID>  (91) 
CDB0091

>  <Smiles>  (91) 
CC1(C2CCC(C(C2(CCC1O)C)COC3=CC4=C(C=C3)C=CC(=O)O4)(C)O)C

>  <Chemical class>  (91) 
7-Oxygenated Coumarins

>  <Natural source>  (91) 
Ferula nevskii

>  <Molecular Formula>  (91) 
C24H32O5

>  <InChI-Key>  (91) 
WNANPKYNOALKIV-UHFFFAOYSA-N

>  <Total Molweight>  (91) 
400.513

>  <cLogP>  (91) 
3.6333

>  <cLogS>  (91) 
-4.785

>  <H-Acceptors>  (91) 
5

>  <H-Donors>  (91) 
2

>  <Rotatable Bonds>  (91) 
3

>  <Polar Surface Area>  (91) 
75.99

$$$$
CDB0092
     RDKit          3D

 61 64  0  0  0  0  0  0  0  0999 V2000
   -4.6319   -1.7000   -1.0067 C   0  0  0  0  0  0  0  0  0  0  0  0
   -3.9468   -0.4143   -0.4556 C   0  0  0  0  0  0  0  0  0  0  0  0
   -2.7722   -0.8380    0.5424 C   0  0  0  0  0  0  0  0  0  0  0  0
   -2.7876   -0.1688    1.9318 C   0  0  0  0  0  0  0  0  0  0  0  0
   -2.1771    1.2247    1.9464 C   0  0  0  0  0  0  0  0  0  0  0  0
   -0.7042    1.2019    1.5258 C   0  0  0  0  0  0  0  0  0  0  0  0
   -0.5653    0.5777    0.1014 C   0  0  0  0  0  0  0  0  0  0  0  0
   -1.3045   -0.8257   -0.0723 C   0  0  0  0  0  0  0  0  0  0  0  0
   -1.4073   -1.2037   -1.5725 C   0  0  0  0  0  0  0  0  0  0  0  0
   -2.2656   -0.2573   -2.4051 C   0  0  0  0  0  0  0  0  0  0  0  0
   -3.3959    0.4275   -1.6333 C   0  0  0  0  0  0  0  0  0  0  0  0
   -4.4057    0.7597   -2.5876 O   0  0  0  0  0  0  0  0  0  0  0  0
   -0.4961   -1.9701    0.5982 C   0  0  0  0  0  0  0  0  0  0  0  0
    0.9074    0.5899   -0.4027 C   0  0  0  0  0  0  0  0  0  0  0  0
    1.7831    0.0128    0.5664 O   0  0  0  0  0  0  0  0  0  0  0  0
    3.1115   -0.0605    0.2514 C   0  0  0  0  0  0  0  0  0  0  0  0
    3.7099    0.4395   -0.9026 C   0  0  0  0  0  0  0  0  0  0  0  0
    5.0870    0.2867   -1.0730 C   0  0  0  0  0  0  0  0  0  0  0  0
    5.8836   -0.3504   -0.1244 C   0  0  0  0  0  0  0  0  0  0  0  0
    5.2817   -0.8484    1.0295 C   0  0  0  0  0  0  0  0  0  0  0  0
    3.9021   -0.7015    1.2130 C   0  0  0  0  0  0  0  0  0  0  0  0
    7.3108   -0.4739   -0.3686 C   0  0  0  0  0  0  0  0  0  0  0  0
    7.8307    0.0251   -1.4942 C   0  0  0  0  0  0  0  0  0  0  0  0
    7.0099    0.7045   -2.5121 C   0  0  0  0  0  0  0  0  0  0  0  0
    7.5213    1.1514   -3.5322 O   0  0  0  0  0  0  0  0  0  0  0  0
    5.6494    0.8088   -2.2560 O   0  0  0  0  0  0  0  0  0  0  0  0
   -0.1549    2.6356    1.5866 C   0  0  0  0  0  0  0  0  0  0  0  0
    0.0044    0.4513    2.5121 O   0  0  0  0  0  0  0  0  0  0  0  0
   -5.0956    0.3622    0.2360 C   0  0  0  0  0  0  0  0  0  0  0  0
   -3.9413   -2.3565   -1.5395 H   0  0  0  0  0  0  0  0  0  0  0  0
   -5.0703   -2.2867   -0.1905 H   0  0  0  0  0  0  0  0  0  0  0  0
   -5.4449   -1.4563   -1.7004 H   0  0  0  0  0  0  0  0  0  0  0  0
   -2.9933   -1.8916    0.7733 H   0  0  0  0  0  0  0  0  0  0  0  0
   -2.2309   -0.8047    2.6326 H   0  0  0  0  0  0  0  0  0  0  0  0
   -3.7960   -0.1350    2.3535 H   0  0  0  0  0  0  0  0  0  0  0  0
   -2.2644    1.6147    2.9689 H   0  0  0  0  0  0  0  0  0  0  0  0
   -2.7436    1.9002    1.2970 H   0  0  0  0  0  0  0  0  0  0  0  0
   -1.0738    1.2778   -0.5694 H   0  0  0  0  0  0  0  0  0  0  0  0
   -1.8250   -2.2151   -1.6544 H   0  0  0  0  0  0  0  0  0  0  0  0
   -0.4210   -1.2926   -2.0405 H   0  0  0  0  0  0  0  0  0  0  0  0
   -1.6295    0.5222   -2.8449 H   0  0  0  0  0  0  0  0  0  0  0  0
   -2.6639   -0.8078   -3.2676 H   0  0  0  0  0  0  0  0  0  0  0  0
   -3.0345    1.3852   -1.2441 H   0  0  0  0  0  0  0  0  0  0  0  0
   -5.0076    1.4038   -2.1789 H   0  0  0  0  0  0  0  0  0  0  0  0
   -0.3442   -1.8104    1.6673 H   0  0  0  0  0  0  0  0  0  0  0  0
   -1.0166   -2.9301    0.4933 H   0  0  0  0  0  0  0  0  0  0  0  0
    0.4839   -2.1041    0.1298 H   0  0  0  0  0  0  0  0  0  0  0  0
    1.2043    1.6316   -0.5781 H   0  0  0  0  0  0  0  0  0  0  0  0
    0.9969    0.0605   -1.3550 H   0  0  0  0  0  0  0  0  0  0  0  0
    3.1470    0.9469   -1.6774 H   0  0  0  0  0  0  0  0  0  0  0  0
    5.8679   -1.3523    1.7939 H   0  0  0  0  0  0  0  0  0  0  0  0
    3.4389   -1.0948    2.1159 H   0  0  0  0  0  0  0  0  0  0  0  0
    7.9343   -0.9701    0.3669 H   0  0  0  0  0  0  0  0  0  0  0  0
    8.8889   -0.0458   -1.7147 H   0  0  0  0  0  0  0  0  0  0  0  0
   -0.3420    3.0805    2.5712 H   0  0  0  0  0  0  0  0  0  0  0  0
    0.9320    2.6578    1.4559 H   0  0  0  0  0  0  0  0  0  0  0  0
   -0.6151    3.2770    0.8281 H   0  0  0  0  0  0  0  0  0  0  0  0
    0.8962    0.2692    2.1568 H   0  0  0  0  0  0  0  0  0  0  0  0
   -5.5146   -0.2041    1.0749 H   0  0  0  0  0  0  0  0  0  0  0  0
   -5.9308    0.5446   -0.4501 H   0  0  0  0  0  0  0  0  0  0  0  0
   -4.7691    1.3394    0.6011 H   0  0  0  0  0  0  0  0  0  0  0  0
  1  2  1  0
  2  3  1  0
  3  4  1  0
  4  5  1  0
  5  6  1  0
  6  7  1  0
  7  8  1  0
  8  9  1  0
  9 10  1  0
 10 11  1  0
 11 12  1  0
  8 13  1  0
  7 14  1  0
 14 15  1  0
 15 16  1  0
 16 17  2  0
 17 18  1  0
 18 19  2  0
 19 20  1  0
 20 21  2  0
 19 22  1  0
 22 23  2  0
 23 24  1  0
 24 25  2  0
 24 26  1  0
  6 27  1  0
  6 28  1  0
  2 29  1  0
 11  2  1  0
  8  3  1  0
 21 16  1  0
 26 18  1  0
  1 30  1  0
  1 31  1  0
  1 32  1  0
  3 33  1  0
  4 34  1  0
  4 35  1  0
  5 36  1  0
  5 37  1  0
  7 38  1  0
  9 39  1  0
  9 40  1  0
 10 41  1  0
 10 42  1  0
 11 43  1  0
 12 44  1  0
 13 45  1  0
 13 46  1  0
 13 47  1  0
 14 48  1  0
 14 49  1  0
 17 50  1  0
 20 51  1  0
 21 52  1  0
 22 53  1  0
 23 54  1  0
 27 55  1  0
 27 56  1  0
 27 57  1  0
 28 58  1  0
 29 59  1  0
 29 60  1  0
 29 61  1  0
M  END
>  <Name>  (92) 
Feshurin

>  <PubChem ID>  (92) 
11873225

>  <CDB ID>  (92) 
CDB0092

>  <Smiles>  (92) 
CC1(C2CCC(C(C2(CCC1O)C)COC3=CC4=C(C=C3)C=CC(=O)O4)(C)O)C

>  <Chemical class>  (92) 
7-Oxygenated Coumarins

>  <Natural source>  (92) 
Ferula schtschurowskiana

>  <Molecular Formula>  (92) 
C24H32O5

>  <InChI-Key>  (92) 
WNANPKYNOALKIV-UHFFFAOYSA-N

>  <Total Molweight>  (92) 
400.513

>  <cLogP>  (92) 
3.6333

>  <cLogS>  (92) 
-4.785

>  <H-Acceptors>  (92) 
5

>  <H-Donors>  (92) 
2

>  <Rotatable Bonds>  (92) 
3

>  <Polar Surface Area>  (92) 
75.99

$$$$
CDB0093
     RDKit          3D

 66 69  0  0  0  0  0  0  0  0999 V2000
   -3.1413    3.5960   -1.9331 C   0  0  0  0  0  0  0  0  0  0  0  0
   -3.3407    2.1532   -2.2823 C   0  0  0  0  0  0  0  0  0  0  0  0
   -3.6292    1.7461   -3.3984 O   0  0  0  0  0  0  0  0  0  0  0  0
   -3.1560    1.3838   -1.1765 O   0  0  0  0  0  0  0  0  0  0  0  0
   -3.2738   -0.0457   -1.3482 C   0  0  0  0  0  0  0  0  0  0  0  0
   -1.9273   -0.5827   -1.8390 C   0  0  0  0  0  0  0  0  0  0  0  0
   -0.8188   -0.4367   -0.7948 C   0  0  0  0  0  0  0  0  0  0  0  0
   -1.1188   -1.1230    0.5601 C   0  0  0  0  0  0  0  0  0  0  0  0
   -2.5555   -0.6794    1.0869 C   0  0  0  0  0  0  0  0  0  0  0  0
   -3.7266   -0.6937   -0.0048 C   0  0  0  0  0  0  0  0  0  0  0  0
   -4.2310   -2.1364   -0.2794 C   0  0  0  0  0  0  0  0  0  0  0  0
   -4.9915    0.0551    0.5080 C   0  0  0  0  0  0  0  0  0  0  0  0
   -2.5060    0.6800    1.8266 C   0  0  0  0  0  0  0  0  0  0  0  0
   -1.4468    0.7481    2.9123 C   0  0  0  0  0  0  0  0  0  0  0  0
   -0.0472    0.5558    2.3363 C   0  0  0  0  0  0  0  0  0  0  0  0
    0.0291   -0.8403    1.6486 C   0  0  0  0  0  0  0  0  0  0  0  0
    1.4778   -1.1734    1.1744 C   0  0  0  0  0  0  0  0  0  0  0  0
    1.9796   -0.1998    0.2667 O   0  0  0  0  0  0  0  0  0  0  0  0
    3.2655   -0.3326   -0.1721 C   0  0  0  0  0  0  0  0  0  0  0  0
    3.7036    0.7024   -0.9993 C   0  0  0  0  0  0  0  0  0  0  0  0
    4.9990    0.6751   -1.5094 C   0  0  0  0  0  0  0  0  0  0  0  0
    5.8752   -0.3660   -1.2170 C   0  0  0  0  0  0  0  0  0  0  0  0
    5.4359   -1.4019   -0.3921 C   0  0  0  0  0  0  0  0  0  0  0  0
    4.1343   -1.3850    0.1289 C   0  0  0  0  0  0  0  0  0  0  0  0
    7.2146   -0.3400   -1.7804 C   0  0  0  0  0  0  0  0  0  0  0  0
    7.5774    0.6810   -2.5628 C   0  0  0  0  0  0  0  0  0  0  0  0
    6.6678    1.7958   -2.8830 C   0  0  0  0  0  0  0  0  0  0  0  0
    7.0399    2.7167   -3.6013 O   0  0  0  0  0  0  0  0  0  0  0  0
    5.3936    1.7456   -2.3358 O   0  0  0  0  0  0  0  0  0  0  0  0
    0.9766    0.7075    3.4732 C   0  0  0  0  0  0  0  0  0  0  0  0
    0.1961    1.6067    1.4041 O   0  0  0  0  0  0  0  0  0  0  0  0
   -1.1103   -2.6667    0.3443 C   0  0  0  0  0  0  0  0  0  0  0  0
   -3.8776    3.9012   -1.1854 H   0  0  0  0  0  0  0  0  0  0  0  0
   -2.1260    3.7494   -1.5587 H   0  0  0  0  0  0  0  0  0  0  0  0
   -3.2783    4.2084   -2.8289 H   0  0  0  0  0  0  0  0  0  0  0  0
   -4.0418   -0.2509   -2.1062 H   0  0  0  0  0  0  0  0  0  0  0  0
   -2.0204   -1.6271   -2.1514 H   0  0  0  0  0  0  0  0  0  0  0  0
   -1.6140   -0.0303   -2.7335 H   0  0  0  0  0  0  0  0  0  0  0  0
    0.0936   -0.8546   -1.2354 H   0  0  0  0  0  0  0  0  0  0  0  0
   -0.6307    0.6309   -0.6489 H   0  0  0  0  0  0  0  0  0  0  0  0
   -2.8415   -1.4065    1.8620 H   0  0  0  0  0  0  0  0  0  0  0  0
   -3.6282   -2.6791   -1.0067 H   0  0  0  0  0  0  0  0  0  0  0  0
   -4.2845   -2.7237    0.6434 H   0  0  0  0  0  0  0  0  0  0  0  0
   -5.2399   -2.1274   -0.7111 H   0  0  0  0  0  0  0  0  0  0  0  0
   -4.8237    1.1255    0.6614 H   0  0  0  0  0  0  0  0  0  0  0  0
   -5.3430   -0.3750    1.4529 H   0  0  0  0  0  0  0  0  0  0  0  0
   -5.8135   -0.0191   -0.2144 H   0  0  0  0  0  0  0  0  0  0  0  0
   -3.4602    0.8665    2.3310 H   0  0  0  0  0  0  0  0  0  0  0  0
   -2.3547    1.5034    1.1226 H   0  0  0  0  0  0  0  0  0  0  0  0
   -1.6557   -0.0036    3.6839 H   0  0  0  0  0  0  0  0  0  0  0  0
   -1.5246    1.7317    3.3939 H   0  0  0  0  0  0  0  0  0  0  0  0
   -0.1677   -1.5675    2.4532 H   0  0  0  0  0  0  0  0  0  0  0  0
    1.5157   -2.1604    0.7079 H   0  0  0  0  0  0  0  0  0  0  0  0
    2.1298   -1.2210    2.0554 H   0  0  0  0  0  0  0  0  0  0  0  0
    3.0353    1.5245   -1.2405 H   0  0  0  0  0  0  0  0  0  0  0  0
    6.0938   -2.2317   -0.1451 H   0  0  0  0  0  0  0  0  0  0  0  0
    3.8296   -2.2107    0.7635 H   0  0  0  0  0  0  0  0  0  0  0  0
    7.9005   -1.1496   -1.5583 H   0  0  0  0  0  0  0  0  0  0  0  0
    8.5651    0.7402   -3.0032 H   0  0  0  0  0  0  0  0  0  0  0  0
    1.9998    0.7696    3.0880 H   0  0  0  0  0  0  0  0  0  0  0  0
    0.8136    1.6432    4.0215 H   0  0  0  0  0  0  0  0  0  0  0  0
    0.9133   -0.1196    4.1877 H   0  0  0  0  0  0  0  0  0  0  0  0
    0.1909    2.4531    1.8815 H   0  0  0  0  0  0  0  0  0  0  0  0
   -1.3604   -3.1941    1.2716 H   0  0  0  0  0  0  0  0  0  0  0  0
   -0.1389   -3.0347    0.0058 H   0  0  0  0  0  0  0  0  0  0  0  0
   -1.8012   -3.0065   -0.4201 H   0  0  0  0  0  0  0  0  0  0  0  0
  1  2  1  0
  2  3  2  0
  2  4  1  0
  4  5  1  0
  5  6  1  0
  6  7  1  0
  7  8  1  0
  8  9  1  0
  9 10  1  0
 10 11  1  0
 10 12  1  0
  9 13  1  0
 13 14  1  0
 14 15  1  0
 15 16  1  0
 16 17  1  0
 17 18  1  0
 18 19  1  0
 19 20  2  0
 20 21  1  0
 21 22  2  0
 22 23  1  0
 23 24  2  0
 22 25  1  0
 25 26  2  0
 26 27  1  0
 27 28  2  0
 27 29  1  0
 15 30  1  0
 15 31  1  0
  8 32  1  0
 10  5  1  0
 16  8  1  0
 24 19  1  0
 29 21  1  0
  1 33  1  0
  1 34  1  0
  1 35  1  0
  5 36  1  0
  6 37  1  0
  6 38  1  0
  7 39  1  0
  7 40  1  0
  9 41  1  0
 11 42  1  0
 11 43  1  0
 11 44  1  0
 12 45  1  0
 12 46  1  0
 12 47  1  0
 13 48  1  0
 13 49  1  0
 14 50  1  0
 14 51  1  0
 16 52  1  0
 17 53  1  0
 17 54  1  0
 20 55  1  0
 23 56  1  0
 24 57  1  0
 25 58  1  0
 26 59  1  0
 30 60  1  0
 30 61  1  0
 30 62  1  0
 31 63  1  0
 32 64  1  0
 32 65  1  0
 32 66  1  0
M  END
>  <Name>  (93) 
Kokanidin

>  <PubChem ID>  (93) 
126961508

>  <CDB ID>  (93) 
CDB0093

>  <Smiles>  (93) 
CC(=O)OC1CCC2(C(C1(C)C)CCC(C2COC3=CC4=C(C=C3)C=CC(=O)O4)(C)O)C

>  <Chemical class>  (93) 
7-Oxygenated Coumarins

>  <Natural source>  (93) 
Ferula kokanica

>  <Molecular Formula>  (93) 
C26H34O6

>  <InChI-Key>  (93) 
RIPKCRCUFJSKKD-UHFFFAOYSA-N

>  <Total Molweight>  (93) 
442.55

>  <cLogP>  (93) 
4.1179

>  <cLogS>  (93) 
-5.195

>  <H-Acceptors>  (93) 
6

>  <H-Donors>  (93) 
1

>  <Rotatable Bonds>  (93) 
5

>  <Polar Surface Area>  (93) 
82.06

$$$$
CDB0094
     RDKit          3D

 61 64  0  0  0  0  0  0  0  0999 V2000
   -4.6319   -1.7000   -1.0067 C   0  0  0  0  0  0  0  0  0  0  0  0
   -3.9468   -0.4143   -0.4556 C   0  0  0  0  0  0  0  0  0  0  0  0
   -2.7722   -0.8380    0.5424 C   0  0  0  0  0  0  0  0  0  0  0  0
   -2.7876   -0.1688    1.9318 C   0  0  0  0  0  0  0  0  0  0  0  0
   -2.1771    1.2247    1.9464 C   0  0  0  0  0  0  0  0  0  0  0  0
   -0.7042    1.2019    1.5258 C   0  0  0  0  0  0  0  0  0  0  0  0
   -0.5653    0.5777    0.1014 C   0  0  0  0  0  0  0  0  0  0  0  0
   -1.3045   -0.8257   -0.0723 C   0  0  0  0  0  0  0  0  0  0  0  0
   -1.4073   -1.2037   -1.5725 C   0  0  0  0  0  0  0  0  0  0  0  0
   -2.2656   -0.2573   -2.4051 C   0  0  0  0  0  0  0  0  0  0  0  0
   -3.3959    0.4275   -1.6333 C   0  0  0  0  0  0  0  0  0  0  0  0
   -4.4057    0.7597   -2.5876 O   0  0  0  0  0  0  0  0  0  0  0  0
   -0.4961   -1.9701    0.5982 C   0  0  0  0  0  0  0  0  0  0  0  0
    0.9074    0.5899   -0.4027 C   0  0  0  0  0  0  0  0  0  0  0  0
    1.7831    0.0128    0.5664 O   0  0  0  0  0  0  0  0  0  0  0  0
    3.1115   -0.0605    0.2514 C   0  0  0  0  0  0  0  0  0  0  0  0
    3.7099    0.4395   -0.9026 C   0  0  0  0  0  0  0  0  0  0  0  0
    5.0870    0.2867   -1.0730 C   0  0  0  0  0  0  0  0  0  0  0  0
    5.8836   -0.3504   -0.1244 C   0  0  0  0  0  0  0  0  0  0  0  0
    5.2817   -0.8484    1.0295 C   0  0  0  0  0  0  0  0  0  0  0  0
    3.9021   -0.7015    1.2130 C   0  0  0  0  0  0  0  0  0  0  0  0
    7.3108   -0.4739   -0.3686 C   0  0  0  0  0  0  0  0  0  0  0  0
    7.8307    0.0251   -1.4942 C   0  0  0  0  0  0  0  0  0  0  0  0
    7.0099    0.7045   -2.5121 C   0  0  0  0  0  0  0  0  0  0  0  0
    7.5213    1.1514   -3.5322 O   0  0  0  0  0  0  0  0  0  0  0  0
    5.6494    0.8088   -2.2560 O   0  0  0  0  0  0  0  0  0  0  0  0
   -0.1549    2.6356    1.5866 C   0  0  0  0  0  0  0  0  0  0  0  0
    0.0044    0.4513    2.5121 O   0  0  0  0  0  0  0  0  0  0  0  0
   -5.0956    0.3622    0.2360 C   0  0  0  0  0  0  0  0  0  0  0  0
   -3.9413   -2.3565   -1.5395 H   0  0  0  0  0  0  0  0  0  0  0  0
   -5.0703   -2.2867   -0.1905 H   0  0  0  0  0  0  0  0  0  0  0  0
   -5.4449   -1.4563   -1.7004 H   0  0  0  0  0  0  0  0  0  0  0  0
   -2.9933   -1.8916    0.7733 H   0  0  0  0  0  0  0  0  0  0  0  0
   -2.2309   -0.8047    2.6326 H   0  0  0  0  0  0  0  0  0  0  0  0
   -3.7960   -0.1350    2.3535 H   0  0  0  0  0  0  0  0  0  0  0  0
   -2.2644    1.6147    2.9689 H   0  0  0  0  0  0  0  0  0  0  0  0
   -2.7436    1.9002    1.2970 H   0  0  0  0  0  0  0  0  0  0  0  0
   -1.0738    1.2778   -0.5694 H   0  0  0  0  0  0  0  0  0  0  0  0
   -1.8250   -2.2151   -1.6544 H   0  0  0  0  0  0  0  0  0  0  0  0
   -0.4210   -1.2926   -2.0405 H   0  0  0  0  0  0  0  0  0  0  0  0
   -1.6295    0.5222   -2.8449 H   0  0  0  0  0  0  0  0  0  0  0  0
   -2.6639   -0.8078   -3.2676 H   0  0  0  0  0  0  0  0  0  0  0  0
   -3.0345    1.3852   -1.2441 H   0  0  0  0  0  0  0  0  0  0  0  0
   -5.0076    1.4038   -2.1789 H   0  0  0  0  0  0  0  0  0  0  0  0
   -0.3442   -1.8104    1.6673 H   0  0  0  0  0  0  0  0  0  0  0  0
   -1.0166   -2.9301    0.4933 H   0  0  0  0  0  0  0  0  0  0  0  0
    0.4839   -2.1041    0.1298 H   0  0  0  0  0  0  0  0  0  0  0  0
    1.2043    1.6316   -0.5781 H   0  0  0  0  0  0  0  0  0  0  0  0
    0.9969    0.0605   -1.3550 H   0  0  0  0  0  0  0  0  0  0  0  0
    3.1470    0.9469   -1.6774 H   0  0  0  0  0  0  0  0  0  0  0  0
    5.8679   -1.3523    1.7939 H   0  0  0  0  0  0  0  0  0  0  0  0
    3.4389   -1.0948    2.1159 H   0  0  0  0  0  0  0  0  0  0  0  0
    7.9343   -0.9701    0.3669 H   0  0  0  0  0  0  0  0  0  0  0  0
    8.8889   -0.0458   -1.7147 H   0  0  0  0  0  0  0  0  0  0  0  0
   -0.3420    3.0805    2.5712 H   0  0  0  0  0  0  0  0  0  0  0  0
    0.9320    2.6578    1.4559 H   0  0  0  0  0  0  0  0  0  0  0  0
   -0.6151    3.2770    0.8281 H   0  0  0  0  0  0  0  0  0  0  0  0
    0.8962    0.2692    2.1568 H   0  0  0  0  0  0  0  0  0  0  0  0
   -5.5146   -0.2041    1.0749 H   0  0  0  0  0  0  0  0  0  0  0  0
   -5.9308    0.5446   -0.4501 H   0  0  0  0  0  0  0  0  0  0  0  0
   -4.7691    1.3394    0.6011 H   0  0  0  0  0  0  0  0  0  0  0  0
  1  2  1  0
  2  3  1  0
  3  4  1  0
  4  5  1  0
  5  6  1  0
  6  7  1  0
  7  8  1  0
  8  9  1  0
  9 10  1  0
 10 11  1  0
 11 12  1  0
  8 13  1  0
  7 14  1  0
 14 15  1  0
 15 16  1  0
 16 17  2  0
 17 18  1  0
 18 19  2  0
 19 20  1  0
 20 21  2  0
 19 22  1  0
 22 23  2  0
 23 24  1  0
 24 25  2  0
 24 26  1  0
  6 27  1  0
  6 28  1  0
  2 29  1  0
 11  2  1  0
  8  3  1  0
 21 16  1  0
 26 18  1  0
  1 30  1  0
  1 31  1  0
  1 32  1  0
  3 33  1  0
  4 34  1  0
  4 35  1  0
  5 36  1  0
  5 37  1  0
  7 38  1  0
  9 39  1  0
  9 40  1  0
 10 41  1  0
 10 42  1  0
 11 43  1  0
 12 44  1  0
 13 45  1  0
 13 46  1  0
 13 47  1  0
 14 48  1  0
 14 49  1  0
 17 50  1  0
 20 51  1  0
 21 52  1  0
 22 53  1  0
 23 54  1  0
 27 55  1  0
 27 56  1  0
 27 57  1  0
 28 58  1  0
 29 59  1  0
 29 60  1  0
 29 61  1  0
M  END
>  <Name>  (94) 
Ferukrin

>  <PubChem ID>  (94) 
11875840

>  <CDB ID>  (94) 
CDB0094

>  <Smiles>  (94) 
CC1(C2CCC(C(C2(CCC1O)C)COC3=CC4=C(C=C3)C=CC(=O)O4)(C)O)C

>  <Chemical class>  (94) 
7-Oxygenated Coumarins

>  <Natural source>  (94) 
Ferula krylovii

>  <Molecular Formula>  (94) 
C24H32O5

>  <InChI-Key>  (94) 
WNANPKYNOALKIV-UHFFFAOYSA-N

>  <Total Molweight>  (94) 
400.513

>  <cLogP>  (94) 
3.6333

>  <cLogS>  (94) 
-4.785

>  <H-Acceptors>  (94) 
5

>  <H-Donors>  (94) 
2

>  <Rotatable Bonds>  (94) 
3

>  <Polar Surface Area>  (94) 
75.99

$$$$
CDB0095
     RDKit          3D

 61 64  0  0  0  0  0  0  0  0999 V2000
   -4.6319   -1.7000   -1.0067 C   0  0  0  0  0  0  0  0  0  0  0  0
   -3.9468   -0.4143   -0.4556 C   0  0  0  0  0  0  0  0  0  0  0  0
   -2.7722   -0.8380    0.5424 C   0  0  0  0  0  0  0  0  0  0  0  0
   -2.7876   -0.1688    1.9318 C   0  0  0  0  0  0  0  0  0  0  0  0
   -2.1771    1.2247    1.9464 C   0  0  0  0  0  0  0  0  0  0  0  0
   -0.7042    1.2019    1.5258 C   0  0  0  0  0  0  0  0  0  0  0  0
   -0.5653    0.5777    0.1014 C   0  0  0  0  0  0  0  0  0  0  0  0
   -1.3045   -0.8257   -0.0723 C   0  0  0  0  0  0  0  0  0  0  0  0
   -1.4073   -1.2037   -1.5725 C   0  0  0  0  0  0  0  0  0  0  0  0
   -2.2656   -0.2573   -2.4051 C   0  0  0  0  0  0  0  0  0  0  0  0
   -3.3959    0.4275   -1.6333 C   0  0  0  0  0  0  0  0  0  0  0  0
   -4.4057    0.7597   -2.5876 O   0  0  0  0  0  0  0  0  0  0  0  0
   -0.4961   -1.9701    0.5982 C   0  0  0  0  0  0  0  0  0  0  0  0
    0.9074    0.5899   -0.4027 C   0  0  0  0  0  0  0  0  0  0  0  0
    1.7831    0.0128    0.5664 O   0  0  0  0  0  0  0  0  0  0  0  0
    3.1115   -0.0605    0.2514 C   0  0  0  0  0  0  0  0  0  0  0  0
    3.7099    0.4395   -0.9026 C   0  0  0  0  0  0  0  0  0  0  0  0
    5.0870    0.2867   -1.0730 C   0  0  0  0  0  0  0  0  0  0  0  0
    5.8836   -0.3504   -0.1244 C   0  0  0  0  0  0  0  0  0  0  0  0
    5.2817   -0.8484    1.0295 C   0  0  0  0  0  0  0  0  0  0  0  0
    3.9021   -0.7015    1.2130 C   0  0  0  0  0  0  0  0  0  0  0  0
    7.3108   -0.4739   -0.3686 C   0  0  0  0  0  0  0  0  0  0  0  0
    7.8307    0.0251   -1.4942 C   0  0  0  0  0  0  0  0  0  0  0  0
    7.0099    0.7045   -2.5121 C   0  0  0  0  0  0  0  0  0  0  0  0
    7.5213    1.1514   -3.5322 O   0  0  0  0  0  0  0  0  0  0  0  0
    5.6494    0.8088   -2.2560 O   0  0  0  0  0  0  0  0  0  0  0  0
   -0.1549    2.6356    1.5866 C   0  0  0  0  0  0  0  0  0  0  0  0
    0.0044    0.4513    2.5121 O   0  0  0  0  0  0  0  0  0  0  0  0
   -5.0956    0.3622    0.2360 C   0  0  0  0  0  0  0  0  0  0  0  0
   -3.9413   -2.3565   -1.5395 H   0  0  0  0  0  0  0  0  0  0  0  0
   -5.0703   -2.2867   -0.1905 H   0  0  0  0  0  0  0  0  0  0  0  0
   -5.4449   -1.4563   -1.7004 H   0  0  0  0  0  0  0  0  0  0  0  0
   -2.9933   -1.8916    0.7733 H   0  0  0  0  0  0  0  0  0  0  0  0
   -2.2309   -0.8047    2.6326 H   0  0  0  0  0  0  0  0  0  0  0  0
   -3.7960   -0.1350    2.3535 H   0  0  0  0  0  0  0  0  0  0  0  0
   -2.2644    1.6147    2.9689 H   0  0  0  0  0  0  0  0  0  0  0  0
   -2.7436    1.9002    1.2970 H   0  0  0  0  0  0  0  0  0  0  0  0
   -1.0738    1.2778   -0.5694 H   0  0  0  0  0  0  0  0  0  0  0  0
   -1.8250   -2.2151   -1.6544 H   0  0  0  0  0  0  0  0  0  0  0  0
   -0.4210   -1.2926   -2.0405 H   0  0  0  0  0  0  0  0  0  0  0  0
   -1.6295    0.5222   -2.8449 H   0  0  0  0  0  0  0  0  0  0  0  0
   -2.6639   -0.8078   -3.2676 H   0  0  0  0  0  0  0  0  0  0  0  0
   -3.0345    1.3852   -1.2441 H   0  0  0  0  0  0  0  0  0  0  0  0
   -5.0076    1.4038   -2.1789 H   0  0  0  0  0  0  0  0  0  0  0  0
   -0.3442   -1.8104    1.6673 H   0  0  0  0  0  0  0  0  0  0  0  0
   -1.0166   -2.9301    0.4933 H   0  0  0  0  0  0  0  0  0  0  0  0
    0.4839   -2.1041    0.1298 H   0  0  0  0  0  0  0  0  0  0  0  0
    1.2043    1.6316   -0.5781 H   0  0  0  0  0  0  0  0  0  0  0  0
    0.9969    0.0605   -1.3550 H   0  0  0  0  0  0  0  0  0  0  0  0
    3.1470    0.9469   -1.6774 H   0  0  0  0  0  0  0  0  0  0  0  0
    5.8679   -1.3523    1.7939 H   0  0  0  0  0  0  0  0  0  0  0  0
    3.4389   -1.0948    2.1159 H   0  0  0  0  0  0  0  0  0  0  0  0
    7.9343   -0.9701    0.3669 H   0  0  0  0  0  0  0  0  0  0  0  0
    8.8889   -0.0458   -1.7147 H   0  0  0  0  0  0  0  0  0  0  0  0
   -0.3420    3.0805    2.5712 H   0  0  0  0  0  0  0  0  0  0  0  0
    0.9320    2.6578    1.4559 H   0  0  0  0  0  0  0  0  0  0  0  0
   -0.6151    3.2770    0.8281 H   0  0  0  0  0  0  0  0  0  0  0  0
    0.8962    0.2692    2.1568 H   0  0  0  0  0  0  0  0  0  0  0  0
   -5.5146   -0.2041    1.0749 H   0  0  0  0  0  0  0  0  0  0  0  0
   -5.9308    0.5446   -0.4501 H   0  0  0  0  0  0  0  0  0  0  0  0
   -4.7691    1.3394    0.6011 H   0  0  0  0  0  0  0  0  0  0  0  0
  1  2  1  0
  2  3  1  0
  3  4  1  0
  4  5  1  0
  5  6  1  0
  6  7  1  0
  7  8  1  0
  8  9  1  0
  9 10  1  0
 10 11  1  0
 11 12  1  0
  8 13  1  0
  7 14  1  0
 14 15  1  0
 15 16  1  0
 16 17  2  0
 17 18  1  0
 18 19  2  0
 19 20  1  0
 20 21  2  0
 19 22  1  0
 22 23  2  0
 23 24  1  0
 24 25  2  0
 24 26  1  0
  6 27  1  0
  6 28  1  0
  2 29  1  0
 11  2  1  0
  8  3  1  0
 21 16  1  0
 26 18  1  0
  1 30  1  0
  1 31  1  0
  1 32  1  0
  3 33  1  0
  4 34  1  0
  4 35  1  0
  5 36  1  0
  5 37  1  0
  7 38  1  0
  9 39  1  0
  9 40  1  0
 10 41  1  0
 10 42  1  0
 11 43  1  0
 12 44  1  0
 13 45  1  0
 13 46  1  0
 13 47  1  0
 14 48  1  0
 14 49  1  0
 17 50  1  0
 20 51  1  0
 21 52  1  0
 22 53  1  0
 23 54  1  0
 27 55  1  0
 27 56  1  0
 27 57  1  0
 28 58  1  0
 29 59  1  0
 29 60  1  0
 29 61  1  0
M  END
>  <Name>  (95) 
Deacetylkellerin

>  <PubChem ID>  (95) 
7091630

>  <CDB ID>  (95) 
CDB0095

>  <Smiles>  (95) 
CC1(C2CCC(C(C2(CCC1O)C)COC3=CC4=C(C=C3)C=CC(=O)O4)(C)O)C

>  <Chemical class>  (95) 
7-Oxygenated Coumarins

>  <Natural source>  (95) 
Ferula kokanica

>  <Molecular Formula>  (95) 
C24H32O5

>  <InChI-Key>  (95) 
WNANPKYNOALKIV-UHFFFAOYSA-N

>  <Total Molweight>  (95) 
400.513

>  <cLogP>  (95) 
3.6333

>  <cLogS>  (95) 
-4.785

>  <H-Acceptors>  (95) 
5

>  <H-Donors>  (95) 
2

>  <Rotatable Bonds>  (95) 
3

>  <Polar Surface Area>  (95) 
75.99

$$$$
CDB0096
     RDKit          3D

 66 69  0  0  0  0  0  0  0  0999 V2000
   -3.1413    3.5960   -1.9331 C   0  0  0  0  0  0  0  0  0  0  0  0
   -3.3407    2.1532   -2.2823 C   0  0  0  0  0  0  0  0  0  0  0  0
   -3.6292    1.7461   -3.3984 O   0  0  0  0  0  0  0  0  0  0  0  0
   -3.1560    1.3838   -1.1765 O   0  0  0  0  0  0  0  0  0  0  0  0
   -3.2738   -0.0457   -1.3482 C   0  0  0  0  0  0  0  0  0  0  0  0
   -1.9273   -0.5827   -1.8390 C   0  0  0  0  0  0  0  0  0  0  0  0
   -0.8188   -0.4367   -0.7948 C   0  0  0  0  0  0  0  0  0  0  0  0
   -1.1188   -1.1230    0.5601 C   0  0  0  0  0  0  0  0  0  0  0  0
   -2.5555   -0.6794    1.0869 C   0  0  0  0  0  0  0  0  0  0  0  0
   -3.7266   -0.6937   -0.0048 C   0  0  0  0  0  0  0  0  0  0  0  0
   -4.2310   -2.1364   -0.2794 C   0  0  0  0  0  0  0  0  0  0  0  0
   -4.9915    0.0551    0.5080 C   0  0  0  0  0  0  0  0  0  0  0  0
   -2.5060    0.6800    1.8266 C   0  0  0  0  0  0  0  0  0  0  0  0
   -1.4468    0.7481    2.9123 C   0  0  0  0  0  0  0  0  0  0  0  0
   -0.0472    0.5558    2.3363 C   0  0  0  0  0  0  0  0  0  0  0  0
    0.0291   -0.8403    1.6486 C   0  0  0  0  0  0  0  0  0  0  0  0
    1.4778   -1.1734    1.1744 C   0  0  0  0  0  0  0  0  0  0  0  0
    1.9796   -0.1998    0.2667 O   0  0  0  0  0  0  0  0  0  0  0  0
    3.2655   -0.3326   -0.1721 C   0  0  0  0  0  0  0  0  0  0  0  0
    3.7036    0.7024   -0.9993 C   0  0  0  0  0  0  0  0  0  0  0  0
    4.9990    0.6751   -1.5094 C   0  0  0  0  0  0  0  0  0  0  0  0
    5.8752   -0.3660   -1.2170 C   0  0  0  0  0  0  0  0  0  0  0  0
    5.4359   -1.4019   -0.3921 C   0  0  0  0  0  0  0  0  0  0  0  0
    4.1343   -1.3850    0.1289 C   0  0  0  0  0  0  0  0  0  0  0  0
    7.2146   -0.3400   -1.7804 C   0  0  0  0  0  0  0  0  0  0  0  0
    7.5774    0.6810   -2.5628 C   0  0  0  0  0  0  0  0  0  0  0  0
    6.6678    1.7958   -2.8830 C   0  0  0  0  0  0  0  0  0  0  0  0
    7.0399    2.7167   -3.6013 O   0  0  0  0  0  0  0  0  0  0  0  0
    5.3936    1.7456   -2.3358 O   0  0  0  0  0  0  0  0  0  0  0  0
    0.9766    0.7075    3.4732 C   0  0  0  0  0  0  0  0  0  0  0  0
    0.1961    1.6067    1.4041 O   0  0  0  0  0  0  0  0  0  0  0  0
   -1.1103   -2.6667    0.3443 C   0  0  0  0  0  0  0  0  0  0  0  0
   -3.8776    3.9012   -1.1854 H   0  0  0  0  0  0  0  0  0  0  0  0
   -2.1260    3.7494   -1.5587 H   0  0  0  0  0  0  0  0  0  0  0  0
   -3.2783    4.2084   -2.8289 H   0  0  0  0  0  0  0  0  0  0  0  0
   -4.0418   -0.2509   -2.1062 H   0  0  0  0  0  0  0  0  0  0  0  0
   -2.0204   -1.6271   -2.1514 H   0  0  0  0  0  0  0  0  0  0  0  0
   -1.6140   -0.0303   -2.7335 H   0  0  0  0  0  0  0  0  0  0  0  0
    0.0936   -0.8546   -1.2354 H   0  0  0  0  0  0  0  0  0  0  0  0
   -0.6307    0.6309   -0.6489 H   0  0  0  0  0  0  0  0  0  0  0  0
   -2.8415   -1.4065    1.8620 H   0  0  0  0  0  0  0  0  0  0  0  0
   -3.6282   -2.6791   -1.0067 H   0  0  0  0  0  0  0  0  0  0  0  0
   -4.2845   -2.7237    0.6434 H   0  0  0  0  0  0  0  0  0  0  0  0
   -5.2399   -2.1274   -0.7111 H   0  0  0  0  0  0  0  0  0  0  0  0
   -4.8237    1.1255    0.6614 H   0  0  0  0  0  0  0  0  0  0  0  0
   -5.3430   -0.3750    1.4529 H   0  0  0  0  0  0  0  0  0  0  0  0
   -5.8135   -0.0191   -0.2144 H   0  0  0  0  0  0  0  0  0  0  0  0
   -3.4602    0.8665    2.3310 H   0  0  0  0  0  0  0  0  0  0  0  0
   -2.3547    1.5034    1.1226 H   0  0  0  0  0  0  0  0  0  0  0  0
   -1.6557   -0.0036    3.6839 H   0  0  0  0  0  0  0  0  0  0  0  0
   -1.5246    1.7317    3.3939 H   0  0  0  0  0  0  0  0  0  0  0  0
   -0.1677   -1.5675    2.4532 H   0  0  0  0  0  0  0  0  0  0  0  0
    1.5157   -2.1604    0.7079 H   0  0  0  0  0  0  0  0  0  0  0  0
    2.1298   -1.2210    2.0554 H   0  0  0  0  0  0  0  0  0  0  0  0
    3.0353    1.5245   -1.2405 H   0  0  0  0  0  0  0  0  0  0  0  0
    6.0938   -2.2317   -0.1451 H   0  0  0  0  0  0  0  0  0  0  0  0
    3.8296   -2.2107    0.7635 H   0  0  0  0  0  0  0  0  0  0  0  0
    7.9005   -1.1496   -1.5583 H   0  0  0  0  0  0  0  0  0  0  0  0
    8.5651    0.7402   -3.0032 H   0  0  0  0  0  0  0  0  0  0  0  0
    1.9998    0.7696    3.0880 H   0  0  0  0  0  0  0  0  0  0  0  0
    0.8136    1.6432    4.0215 H   0  0  0  0  0  0  0  0  0  0  0  0
    0.9133   -0.1196    4.1877 H   0  0  0  0  0  0  0  0  0  0  0  0
    0.1909    2.4531    1.8815 H   0  0  0  0  0  0  0  0  0  0  0  0
   -1.3604   -3.1941    1.2716 H   0  0  0  0  0  0  0  0  0  0  0  0
   -0.1389   -3.0347    0.0058 H   0  0  0  0  0  0  0  0  0  0  0  0
   -1.8012   -3.0065   -0.4201 H   0  0  0  0  0  0  0  0  0  0  0  0
  1  2  1  0
  2  3  2  0
  2  4  1  0
  4  5  1  0
  5  6  1  0
  6  7  1  0
  7  8  1  0
  8  9  1  0
  9 10  1  0
 10 11  1  0
 10 12  1  0
  9 13  1  0
 13 14  1  0
 14 15  1  0
 15 16  1  0
 16 17  1  0
 17 18  1  0
 18 19  1  0
 19 20  2  0
 20 21  1  0
 21 22  2  0
 22 23  1  0
 23 24  2  0
 22 25  1  0
 25 26  2  0
 26 27  1  0
 27 28  2  0
 27 29  1  0
 15 30  1  0
 15 31  1  0
  8 32  1  0
 10  5  1  0
 16  8  1  0
 24 19  1  0
 29 21  1  0
  1 33  1  0
  1 34  1  0
  1 35  1  0
  5 36  1  0
  6 37  1  0
  6 38  1  0
  7 39  1  0
  7 40  1  0
  9 41  1  0
 11 42  1  0
 11 43  1  0
 11 44  1  0
 12 45  1  0
 12 46  1  0
 12 47  1  0
 13 48  1  0
 13 49  1  0
 14 50  1  0
 14 51  1  0
 16 52  1  0
 17 53  1  0
 17 54  1  0
 20 55  1  0
 23 56  1  0
 24 57  1  0
 25 58  1  0
 26 59  1  0
 30 60  1  0
 30 61  1  0
 30 62  1  0
 31 63  1  0
 32 64  1  0
 32 65  1  0
 32 66  1  0
M  END
>  <Name>  (96) 
Kellerin

>  <PubChem ID>  (96) 
40580807

>  <CDB ID>  (96) 
CDB0096

>  <Smiles>  (96) 
CC(=O)OC1CCC2(C(C1(C)C)CCC(C2COC3=CC4=C(C=C3)C=CC(=O)O4)(C)O)C

>  <Chemical class>  (96) 
7-Oxygenated Coumarins

>  <Natural source>  (96) 
Ferula kelleri

>  <Molecular Formula>  (96) 
C26H34O6

>  <InChI-Key>  (96) 
RIPKCRCUFJSKKD-UHFFFAOYSA-N

>  <Total Molweight>  (96) 
442.55

>  <cLogP>  (96) 
4.1179

>  <cLogS>  (96) 
-5.195

>  <H-Acceptors>  (96) 
6

>  <H-Donors>  (96) 
1

>  <Rotatable Bonds>  (96) 
5

>  <Polar Surface Area>  (96) 
82.06

$$$$
CDB0097
     RDKit          3D

 60 63  0  0  0  0  0  0  0  0999 V2000
   -1.2905   -1.8229    2.7145 C   0  0  0  0  0  0  0  0  0  0  0  0
   -0.5273   -1.4742    1.4259 C   0  0  0  0  0  0  0  0  0  0  0  0
   -1.0851   -2.2865    0.2506 C   0  0  0  0  0  0  0  0  0  0  0  0
   -2.4554   -1.7923   -0.1966 C   0  0  0  0  0  0  0  0  0  0  0  0
   -2.4939   -0.3107   -0.6517 C   0  0  0  0  0  0  0  0  0  0  0  0
   -3.9997    0.1531   -0.9418 C   0  0  0  0  0  0  0  0  0  0  0  0
   -4.2153    1.6502   -0.6654 C   0  0  0  0  0  0  0  0  0  0  0  0
   -3.9183    2.0135    0.7847 C   0  0  0  0  0  0  0  0  0  0  0  0
   -2.8162    1.1620    1.4262 C   0  0  0  0  0  0  0  0  0  0  0  0
   -1.7749    0.6307    0.4126 C   0  0  0  0  0  0  0  0  0  0  0  0
   -0.4432    0.0554    1.0903 C   0  0  0  0  0  0  0  0  0  0  0  0
   -0.0650    0.8491    2.3742 C   0  0  0  0  0  0  0  0  0  0  0  0
    0.7609    0.2971    0.1044 C   0  0  0  0  0  0  0  0  0  0  0  0
    2.0013   -0.0820    0.7149 O   0  0  0  0  0  0  0  0  0  0  0  0
    3.1431    0.0866   -0.0173 C   0  0  0  0  0  0  0  0  0  0  0  0
    4.3139   -0.3028    0.6347 C   0  0  0  0  0  0  0  0  0  0  0  0
    5.5390   -0.1767   -0.0158 C   0  0  0  0  0  0  0  0  0  0  0  0
    5.6295    0.3307   -1.3086 C   0  0  0  0  0  0  0  0  0  0  0  0
    4.4591    0.7199   -1.9601 C   0  0  0  0  0  0  0  0  0  0  0  0
    3.2195    0.5982   -1.3161 C   0  0  0  0  0  0  0  0  0  0  0  0
    6.9365    0.4377   -1.9347 C   0  0  0  0  0  0  0  0  0  0  0  0
    8.0217    0.0482   -1.2587 C   0  0  0  0  0  0  0  0  0  0  0  0
    7.9502   -0.4917    0.1109 C   0  0  0  0  0  0  0  0  0  0  0  0
    8.9685   -0.8381    0.6986 O   0  0  0  0  0  0  0  0  0  0  0  0
    6.6905   -0.5839    0.6862 O   0  0  0  0  0  0  0  0  0  0  0  0
   -3.3838    2.4197   -1.5337 O   0  0  0  0  0  0  0  0  0  0  0  0
   -5.1059   -0.6554   -0.2406 C   0  0  0  0  0  0  0  0  0  0  0  0
   -1.7641   -0.2225   -2.0265 C   0  0  0  0  0  0  0  0  0  0  0  0
   -1.3510   -2.9098    2.8426 H   0  0  0  0  0  0  0  0  0  0  0  0
   -0.7734   -1.4375    3.5987 H   0  0  0  0  0  0  0  0  0  0  0  0
   -2.3103   -1.4361    2.7207 H   0  0  0  0  0  0  0  0  0  0  0  0
    0.4920   -1.8455    1.5999 H   0  0  0  0  0  0  0  0  0  0  0  0
   -0.3794   -2.2781   -0.5856 H   0  0  0  0  0  0  0  0  0  0  0  0
   -1.1692   -3.3421    0.5398 H   0  0  0  0  0  0  0  0  0  0  0  0
   -2.8110   -2.4381   -1.0100 H   0  0  0  0  0  0  0  0  0  0  0  0
   -3.1414   -1.9525    0.6410 H   0  0  0  0  0  0  0  0  0  0  0  0
   -4.1909    0.0082   -2.0144 H   0  0  0  0  0  0  0  0  0  0  0  0
   -5.2468    1.9332   -0.9069 H   0  0  0  0  0  0  0  0  0  0  0  0
   -4.8267    1.9005    1.3891 H   0  0  0  0  0  0  0  0  0  0  0  0
   -3.6317    3.0707    0.8495 H   0  0  0  0  0  0  0  0  0  0  0  0
   -3.2742    0.3279    1.9645 H   0  0  0  0  0  0  0  0  0  0  0  0
   -2.3576    1.8005    2.1858 H   0  0  0  0  0  0  0  0  0  0  0  0
   -1.4472    1.5317   -0.1263 H   0  0  0  0  0  0  0  0  0  0  0  0
    0.8687    0.4831    2.8163 H   0  0  0  0  0  0  0  0  0  0  0  0
   -0.8206    0.7701    3.1607 H   0  0  0  0  0  0  0  0  0  0  0  0
    0.0717    1.9132    2.1490 H   0  0  0  0  0  0  0  0  0  0  0  0
    0.6474   -0.2899   -0.8036 H   0  0  0  0  0  0  0  0  0  0  0  0
    0.8031    1.3624   -0.1570 H   0  0  0  0  0  0  0  0  0  0  0  0
    4.2696   -0.7021    1.6439 H   0  0  0  0  0  0  0  0  0  0  0  0
    4.4926    1.1204   -2.9705 H   0  0  0  0  0  0  0  0  0  0  0  0
    2.3331    0.9123   -1.8583 H   0  0  0  0  0  0  0  0  0  0  0  0
    7.0127    0.8320   -2.9418 H   0  0  0  0  0  0  0  0  0  0  0  0
    9.0145    0.1106   -1.6873 H   0  0  0  0  0  0  0  0  0  0  0  0
   -3.6069    3.3567   -1.3973 H   0  0  0  0  0  0  0  0  0  0  0  0
   -5.1101   -1.6957   -0.5815 H   0  0  0  0  0  0  0  0  0  0  0  0
   -6.0929   -0.2459   -0.4848 H   0  0  0  0  0  0  0  0  0  0  0  0
   -5.0097   -0.6473    0.8482 H   0  0  0  0  0  0  0  0  0  0  0  0
   -1.5930    0.8138   -2.3321 H   0  0  0  0  0  0  0  0  0  0  0  0
   -2.3529   -0.7057   -2.8159 H   0  0  0  0  0  0  0  0  0  0  0  0
   -0.8035   -0.7335   -2.0456 H   0  0  0  0  0  0  0  0  0  0  0  0
  1  2  1  0
  2  3  1  0
  3  4  1  0
  4  5  1  0
  5  6  1  0
  6  7  1  0
  7  8  1  0
  8  9  1  0
  9 10  1  0
 10 11  1  0
 11 12  1  0
 11 13  1  0
 13 14  1  0
 14 15  1  0
 15 16  2  0
 16 17  1  0
 17 18  2  0
 18 19  1  0
 19 20  2  0
 18 21  1  0
 21 22  2  0
 22 23  1  0
 23 24  2  0
 23 25  1  0
  7 26  1  0
  6 27  1  0
  5 28  1  0
 11  2  1  0
 10  5  1  0
 20 15  1  0
 25 17  1  0
  1 29  1  0
  1 30  1  0
  1 31  1  0
  2 32  1  0
  3 33  1  0
  3 34  1  0
  4 35  1  0
  4 36  1  0
  6 37  1  0
  7 38  1  0
  8 39  1  0
  8 40  1  0
  9 41  1  0
  9 42  1  0
 10 43  1  0
 12 44  1  0
 12 45  1  0
 12 46  1  0
 13 47  1  0
 13 48  1  0
 16 49  1  0
 19 50  1  0
 20 51  1  0
 21 52  1  0
 22 53  1  0
 26 54  1  0
 27 55  1  0
 27 56  1  0
 27 57  1  0
 28 58  1  0
 28 59  1  0
 28 60  1  0
M  END
>  <Name>  (97) 
Kamolol

>  <PubChem ID>  (97) 
191499

>  <CDB ID>  (97) 
CDB0097

>  <Smiles>  (97) 
CC1CCC2(C(C(CCC2C1(C)COC3=CC4=C(C=C3)C=CC(=O)O4)O)C)C

>  <Chemical class>  (97) 
7-Oxygenated Coumarins

>  <Natural source>  (97) 
Ferula penninervis

>  <Molecular Formula>  (97) 
C24H32O4

>  <InChI-Key>  (97) 
VZHMLYJMPGDZPE-UHFFFAOYSA-N

>  <Total Molweight>  (97) 
384.514

>  <cLogP>  (97) 
4.4567

>  <cLogS>  (97) 
-5.235

>  <H-Acceptors>  (97) 
4

>  <H-Donors>  (97) 
1

>  <Rotatable Bonds>  (97) 
3

>  <Polar Surface Area>  (97) 
55.76

$$$$
CDB0098
     RDKit          3D

 58 61  0  0  0  0  0  0  0  0999 V2000
   -0.0461   -3.0773   -1.4266 C   0  0  0  0  0  0  0  0  0  0  0  0
   -0.8583   -2.0057   -0.6806 C   0  0  0  0  0  0  0  0  0  0  0  0
   -2.3458   -2.3405   -0.8369 C   0  0  0  0  0  0  0  0  0  0  0  0
   -3.2119   -1.5551    0.1419 C   0  0  0  0  0  0  0  0  0  0  0  0
   -2.8343   -0.0514    0.2801 C   0  0  0  0  0  0  0  0  0  0  0  0
   -4.1322    0.8379    0.2740 C   0  0  0  0  0  0  0  0  0  0  0  0
   -3.7496    2.3107    0.2892 C   0  0  0  0  0  0  0  0  0  0  0  0
   -4.2397    3.0969    1.0986 O   0  0  0  0  0  0  0  0  0  0  0  0
   -2.8046    2.7753   -0.7900 C   0  0  0  0  0  0  0  0  0  0  0  0
   -1.5525    1.9116   -0.8092 C   0  0  0  0  0  0  0  0  0  0  0  0
   -1.8635    0.3942   -0.8771 C   0  0  0  0  0  0  0  0  0  0  0  0
   -0.5655   -0.5094   -1.0840 C   0  0  0  0  0  0  0  0  0  0  0  0
   -0.1868   -0.4224   -2.5914 C   0  0  0  0  0  0  0  0  0  0  0  0
    0.6599    0.0363   -0.2786 C   0  0  0  0  0  0  0  0  0  0  0  0
    1.7970   -0.8129   -0.4393 O   0  0  0  0  0  0  0  0  0  0  0  0
    2.9397   -0.4709    0.2280 C   0  0  0  0  0  0  0  0  0  0  0  0
    3.1149    0.6507    1.0353 C   0  0  0  0  0  0  0  0  0  0  0  0
    4.3516    0.8584    1.6486 C   0  0  0  0  0  0  0  0  0  0  0  0
    5.4184   -0.0213    1.4792 C   0  0  0  0  0  0  0  0  0  0  0  0
    5.2401   -1.1420    0.6705 C   0  0  0  0  0  0  0  0  0  0  0  0
    4.0053   -1.3614    0.0496 C   0  0  0  0  0  0  0  0  0  0  0  0
    6.6775    0.2580    2.1487 C   0  0  0  0  0  0  0  0  0  0  0  0
    6.7885    1.3501    2.9110 C   0  0  0  0  0  0  0  0  0  0  0  0
    5.6758    2.2965    3.1050 C   0  0  0  0  0  0  0  0  0  0  0  0
    5.8149    3.2890    3.8104 O   0  0  0  0  0  0  0  0  0  0  0  0
    4.4833    2.0071    2.4560 O   0  0  0  0  0  0  0  0  0  0  0  0
   -5.1054    0.6314   -0.8944 C   0  0  0  0  0  0  0  0  0  0  0  0
   -2.1818    0.1246    1.6807 C   0  0  0  0  0  0  0  0  0  0  0  0
   -0.2389   -4.0657   -0.9931 H   0  0  0  0  0  0  0  0  0  0  0  0
   -0.3213   -3.1324   -2.4849 H   0  0  0  0  0  0  0  0  0  0  0  0
    1.0305   -2.9092   -1.3588 H   0  0  0  0  0  0  0  0  0  0  0  0
   -0.6088   -2.1265    0.3820 H   0  0  0  0  0  0  0  0  0  0  0  0
   -2.6730   -2.1429   -1.8654 H   0  0  0  0  0  0  0  0  0  0  0  0
   -2.5188   -3.4101   -0.6629 H   0  0  0  0  0  0  0  0  0  0  0  0
   -4.2522   -1.6970   -0.1605 H   0  0  0  0  0  0  0  0  0  0  0  0
   -3.1493   -2.0468    1.1224 H   0  0  0  0  0  0  0  0  0  0  0  0
   -4.6958    0.6458    1.1974 H   0  0  0  0  0  0  0  0  0  0  0  0
   -2.5320    3.8192   -0.6008 H   0  0  0  0  0  0  0  0  0  0  0  0
   -3.3245    2.7382   -1.7527 H   0  0  0  0  0  0  0  0  0  0  0  0
   -0.9472    2.2163   -1.6696 H   0  0  0  0  0  0  0  0  0  0  0  0
   -0.9609    2.1411    0.0838 H   0  0  0  0  0  0  0  0  0  0  0  0
   -2.4453    0.2662   -1.8017 H   0  0  0  0  0  0  0  0  0  0  0  0
   -0.9786   -0.8386   -3.2239 H   0  0  0  0  0  0  0  0  0  0  0  0
    0.7392   -0.9606   -2.8187 H   0  0  0  0  0  0  0  0  0  0  0  0
   -0.0265    0.6137   -2.9069 H   0  0  0  0  0  0  0  0  0  0  0  0
    0.9261    1.0351   -0.6445 H   0  0  0  0  0  0  0  0  0  0  0  0
    0.4104    0.1001    0.7838 H   0  0  0  0  0  0  0  0  0  0  0  0
    2.3251    1.3729    1.2061 H   0  0  0  0  0  0  0  0  0  0  0  0
    6.0471   -1.8527    0.5122 H   0  0  0  0  0  0  0  0  0  0  0  0
    3.8702   -2.2377   -0.5812 H   0  0  0  0  0  0  0  0  0  0  0  0
    7.5100   -0.4249    2.0201 H   0  0  0  0  0  0  0  0  0  0  0  0
    7.7088    1.5950    3.4272 H   0  0  0  0  0  0  0  0  0  0  0  0
   -4.6003    0.6156   -1.8640 H   0  0  0  0  0  0  0  0  0  0  0  0
   -5.8443    1.4408   -0.9303 H   0  0  0  0  0  0  0  0  0  0  0  0
   -5.6685   -0.3002   -0.7908 H   0  0  0  0  0  0  0  0  0  0  0  0
   -1.3496   -0.5655    1.8376 H   0  0  0  0  0  0  0  0  0  0  0  0
   -1.8128    1.1394    1.8525 H   0  0  0  0  0  0  0  0  0  0  0  0
   -2.9081   -0.0868    2.4755 H   0  0  0  0  0  0  0  0  0  0  0  0
  1  2  1  0
  2  3  1  0
  3  4  1  0
  4  5  1  0
  5  6  1  0
  6  7  1  0
  7  8  2  0
  7  9  1  0
  9 10  1  0
 10 11  1  0
 11 12  1  0
 12 13  1  0
 12 14  1  0
 14 15  1  0
 15 16  1  0
 16 17  2  0
 17 18  1  0
 18 19  2  0
 19 20  1  0
 20 21  2  0
 19 22  1  0
 22 23  2  0
 23 24  1  0
 24 25  2  0
 24 26  1  0
  6 27  1  0
  5 28  1  0
 12  2  1  0
 11  5  1  0
 21 16  1  0
 26 18  1  0
  1 29  1  0
  1 30  1  0
  1 31  1  0
  2 32  1  0
  3 33  1  0
  3 34  1  0
  4 35  1  0
  4 36  1  0
  6 37  1  0
  9 38  1  0
  9 39  1  0
 10 40  1  0
 10 41  1  0
 11 42  1  0
 13 43  1  0
 13 44  1  0
 13 45  1  0
 14 46  1  0
 14 47  1  0
 17 48  1  0
 20 49  1  0
 21 50  1  0
 22 51  1  0
 23 52  1  0
 27 53  1  0
 27 54  1  0
 27 55  1  0
 28 56  1  0
 28 57  1  0
 28 58  1  0
M  END
>  <Name>  (98) 
Kamolone

>  <PubChem ID>  (98) 
191500

>  <CDB ID>  (98) 
CDB0098

>  <Smiles>  (98) 
CC1CCC2(C(C(=O)CCC2C1(C)COC3=CC4=C(C=C3)C=CC(=O)O4)C)C

>  <Chemical class>  (98) 
7-Oxygenated Coumarins

>  <Natural source>  (98) 
Ferula penninervis

>  <Molecular Formula>  (98) 
C24H30O4

>  <InChI-Key>  (98) 
RMXJARGUSLRHBH-UHFFFAOYSA-N

>  <Total Molweight>  (98) 
382.498

>  <cLogP>  (98) 
4.6004

>  <cLogS>  (98) 
-5.286

>  <H-Acceptors>  (98) 
4

>  <H-Donors>  (98) 
0

>  <Rotatable Bonds>  (98) 
3

>  <Polar Surface Area>  (98) 
52.6

$$$$
CDB0099
     RDKit          3D

 59 62  0  0  0  0  0  0  0  0999 V2000
   -0.6655    3.8246   -0.6210 C   0  0  0  0  0  0  0  0  0  0  0  0
   -1.1417    2.3698   -0.7624 C   0  0  0  0  0  0  0  0  0  0  0  0
   -2.6645    2.3470   -0.9230 C   0  0  0  0  0  0  0  0  0  0  0  0
   -3.2365    0.9635   -1.2692 C   0  0  0  0  0  0  0  0  0  0  0  0
   -2.3643   -0.2595   -0.8192 C   0  0  0  0  0  0  0  0  0  0  0  0
   -3.3143   -1.4985   -0.6132 C   0  0  0  0  0  0  0  0  0  0  0  0
   -4.2063   -1.2894    0.5933 C   0  0  0  0  0  0  0  0  0  0  0  0
   -5.4272   -1.4161    0.5222 O   0  0  0  0  0  0  0  0  0  0  0  0
   -3.5133   -0.9729    1.8861 C   0  0  0  0  0  0  0  0  0  0  0  0
   -2.6143    0.2377    1.7005 C   0  0  0  0  0  0  0  0  0  0  0  0
   -1.6078    0.1136    0.5154 C   0  0  0  0  0  0  0  0  0  0  0  0
   -0.6492    1.3963    0.3744 C   0  0  0  0  0  0  0  0  0  0  0  0
   -0.5199    2.1482    1.7297 C   0  0  0  0  0  0  0  0  0  0  0  0
    0.8078    0.9400    0.0127 C   0  0  0  0  0  0  0  0  0  0  0  0
    1.3039    0.0483    1.0162 O   0  0  0  0  0  0  0  0  0  0  0  0
    2.5608   -0.4588    0.8401 C   0  0  0  0  0  0  0  0  0  0  0  0
    3.4189   -0.1767   -0.2203 C   0  0  0  0  0  0  0  0  0  0  0  0
    4.6770   -0.7805   -0.2542 C   0  0  0  0  0  0  0  0  0  0  0  0
    5.1036   -1.6574    0.7407 C   0  0  0  0  0  0  0  0  0  0  0  0
    4.2435   -1.9366    1.8008 C   0  0  0  0  0  0  0  0  0  0  0  0
    2.9794   -1.3379    1.8463 C   0  0  0  0  0  0  0  0  0  0  0  0
    6.4272   -2.2490    0.6407 C   0  0  0  0  0  0  0  0  0  0  0  0
    7.2075   -1.9421   -0.4000 C   0  0  0  0  0  0  0  0  0  0  0  0
    6.7795   -1.0180   -1.4650 C   0  0  0  0  0  0  0  0  0  0  0  0
    7.5224   -0.7602   -2.4050 O   0  0  0  0  0  0  0  0  0  0  0  0
    5.5113   -0.4659   -1.3467 O   0  0  0  0  0  0  0  0  0  0  0  0
   -2.6186   -2.8564   -0.4504 C   0  0  0  0  0  0  0  0  0  0  0  0
   -1.3735   -0.6716   -1.9429 C   0  0  0  0  0  0  0  0  0  0  0  0
   -3.4649    0.9228   -2.6789 O   0  0  0  0  0  0  0  0  0  0  0  0
    0.4224    3.8809   -0.5185 H   0  0  0  0  0  0  0  0  0  0  0  0
   -0.9354    4.4008   -1.5135 H   0  0  0  0  0  0  0  0  0  0  0  0
   -1.1260    4.3246    0.2370 H   0  0  0  0  0  0  0  0  0  0  0  0
   -0.7153    2.0423   -1.7159 H   0  0  0  0  0  0  0  0  0  0  0  0
   -2.9646    3.0688   -1.6940 H   0  0  0  0  0  0  0  0  0  0  0  0
   -3.1174    2.7011    0.0111 H   0  0  0  0  0  0  0  0  0  0  0  0
   -4.2303    0.9236   -0.8077 H   0  0  0  0  0  0  0  0  0  0  0  0
   -3.9785   -1.5819   -1.4844 H   0  0  0  0  0  0  0  0  0  0  0  0
   -2.9420   -1.8482    2.2108 H   0  0  0  0  0  0  0  0  0  0  0  0
   -4.2654   -0.7652    2.6549 H   0  0  0  0  0  0  0  0  0  0  0  0
   -3.2448    1.1238    1.5741 H   0  0  0  0  0  0  0  0  0  0  0  0
   -2.0751    0.3640    2.6449 H   0  0  0  0  0  0  0  0  0  0  0  0
   -0.9732   -0.7434    0.7749 H   0  0  0  0  0  0  0  0  0  0  0  0
   -1.4570    2.6377    2.0138 H   0  0  0  0  0  0  0  0  0  0  0  0
   -0.2230    1.4739    2.5405 H   0  0  0  0  0  0  0  0  0  0  0  0
    0.2518    2.9255    1.6911 H   0  0  0  0  0  0  0  0  0  0  0  0
    0.8221    0.4369   -0.9575 H   0  0  0  0  0  0  0  0  0  0  0  0
    1.4637    1.8179   -0.0435 H   0  0  0  0  0  0  0  0  0  0  0  0
    3.1474    0.4978   -1.0242 H   0  0  0  0  0  0  0  0  0  0  0  0
    4.5387   -2.6143    2.5977 H   0  0  0  0  0  0  0  0  0  0  0  0
    2.3119   -1.5580    2.6768 H   0  0  0  0  0  0  0  0  0  0  0  0
    6.7632   -2.9318    1.4132 H   0  0  0  0  0  0  0  0  0  0  0  0
    8.2002   -2.3606   -0.5123 H   0  0  0  0  0  0  0  0  0  0  0  0
   -2.1714   -3.1898   -1.3920 H   0  0  0  0  0  0  0  0  0  0  0  0
   -3.3367   -3.6266   -0.1457 H   0  0  0  0  0  0  0  0  0  0  0  0
   -1.8303   -2.8297    0.3078 H   0  0  0  0  0  0  0  0  0  0  0  0
   -0.8577    0.1694   -2.4048 H   0  0  0  0  0  0  0  0  0  0  0  0
   -0.6090   -1.3603   -1.5668 H   0  0  0  0  0  0  0  0  0  0  0  0
   -1.8957   -1.1815   -2.7620 H   0  0  0  0  0  0  0  0  0  0  0  0
   -4.1339    0.2379   -2.8535 H   0  0  0  0  0  0  0  0  0  0  0  0
  1  2  1  0
  2  3  1  0
  3  4  1  0
  4  5  1  0
  5  6  1  0
  6  7  1  0
  7  8  2  0
  7  9  1  0
  9 10  1  0
 10 11  1  0
 11 12  1  0
 12 13  1  0
 12 14  1  0
 14 15  1  0
 15 16  1  0
 16 17  2  0
 17 18  1  0
 18 19  2  0
 19 20  1  0
 20 21  2  0
 19 22  1  0
 22 23  2  0
 23 24  1  0
 24 25  2  0
 24 26  1  0
  6 27  1  0
  5 28  1  0
  4 29  1  0
 12  2  1  0
 11  5  1  0
 21 16  1  0
 26 18  1  0
  1 30  1  0
  1 31  1  0
  1 32  1  0
  2 33  1  0
  3 34  1  0
  3 35  1  0
  4 36  1  0
  6 37  1  0
  9 38  1  0
  9 39  1  0
 10 40  1  0
 10 41  1  0
 11 42  1  0
 13 43  1  0
 13 44  1  0
 13 45  1  0
 14 46  1  0
 14 47  1  0
 17 48  1  0
 20 49  1  0
 21 50  1  0
 22 51  1  0
 23 52  1  0
 27 53  1  0
 27 54  1  0
 27 55  1  0
 28 56  1  0
 28 57  1  0
 28 58  1  0
 29 59  1  0
M  END
>  <Name>  (99) 
Kamolonol

>  <PubChem ID>  (99) 
46883037

>  <CDB ID>  (99) 
CDB0099

>  <Smiles>  (99) 
CC1CC(C2(C(C(=O)CCC2C1(C)COC3=CC4=C(C=C3)C=CC(=O)O4)C)C)O

>  <Chemical class>  (99) 
7-Oxygenated Coumarins

>  <Natural source>  (99) 
Ferula assafoetida

>  <Molecular Formula>  (99) 
C24H30O5

>  <InChI-Key>  (99) 
XYUJBOZUFFMPGO-UHFFFAOYSA-N

>  <Total Molweight>  (99) 
398.497

>  <cLogP>  (99) 
3.7483

>  <cLogS>  (99) 
-4.887

>  <H-Acceptors>  (99) 
5

>  <H-Donors>  (99) 
1

>  <Rotatable Bonds>  (99) 
3

>  <Polar Surface Area>  (99) 
72.83

$$$$
CDB0100
     RDKit          3D

 60 63  0  0  0  0  0  0  0  0999 V2000
   -1.2905   -1.8229    2.7145 C   0  0  0  0  0  0  0  0  0  0  0  0
   -0.5273   -1.4742    1.4259 C   0  0  0  0  0  0  0  0  0  0  0  0
   -1.0851   -2.2865    0.2506 C   0  0  0  0  0  0  0  0  0  0  0  0
   -2.4554   -1.7923   -0.1966 C   0  0  0  0  0  0  0  0  0  0  0  0
   -2.4939   -0.3107   -0.6517 C   0  0  0  0  0  0  0  0  0  0  0  0
   -3.9997    0.1531   -0.9418 C   0  0  0  0  0  0  0  0  0  0  0  0
   -4.2153    1.6502   -0.6654 C   0  0  0  0  0  0  0  0  0  0  0  0
   -3.9183    2.0135    0.7847 C   0  0  0  0  0  0  0  0  0  0  0  0
   -2.8162    1.1620    1.4262 C   0  0  0  0  0  0  0  0  0  0  0  0
   -1.7749    0.6307    0.4126 C   0  0  0  0  0  0  0  0  0  0  0  0
   -0.4432    0.0554    1.0903 C   0  0  0  0  0  0  0  0  0  0  0  0
   -0.0650    0.8491    2.3742 C   0  0  0  0  0  0  0  0  0  0  0  0
    0.7609    0.2971    0.1044 C   0  0  0  0  0  0  0  0  0  0  0  0
    2.0013   -0.0820    0.7149 O   0  0  0  0  0  0  0  0  0  0  0  0
    3.1431    0.0866   -0.0173 C   0  0  0  0  0  0  0  0  0  0  0  0
    4.3139   -0.3028    0.6347 C   0  0  0  0  0  0  0  0  0  0  0  0
    5.5390   -0.1767   -0.0158 C   0  0  0  0  0  0  0  0  0  0  0  0
    5.6295    0.3307   -1.3086 C   0  0  0  0  0  0  0  0  0  0  0  0
    4.4591    0.7199   -1.9601 C   0  0  0  0  0  0  0  0  0  0  0  0
    3.2195    0.5982   -1.3161 C   0  0  0  0  0  0  0  0  0  0  0  0
    6.9365    0.4377   -1.9347 C   0  0  0  0  0  0  0  0  0  0  0  0
    8.0217    0.0482   -1.2587 C   0  0  0  0  0  0  0  0  0  0  0  0
    7.9502   -0.4917    0.1109 C   0  0  0  0  0  0  0  0  0  0  0  0
    8.9685   -0.8381    0.6986 O   0  0  0  0  0  0  0  0  0  0  0  0
    6.6905   -0.5839    0.6862 O   0  0  0  0  0  0  0  0  0  0  0  0
   -3.3838    2.4197   -1.5337 O   0  0  0  0  0  0  0  0  0  0  0  0
   -5.1059   -0.6554   -0.2406 C   0  0  0  0  0  0  0  0  0  0  0  0
   -1.7641   -0.2225   -2.0265 C   0  0  0  0  0  0  0  0  0  0  0  0
   -1.3510   -2.9098    2.8426 H   0  0  0  0  0  0  0  0  0  0  0  0
   -0.7734   -1.4375    3.5987 H   0  0  0  0  0  0  0  0  0  0  0  0
   -2.3103   -1.4361    2.7207 H   0  0  0  0  0  0  0  0  0  0  0  0
    0.4920   -1.8455    1.5999 H   0  0  0  0  0  0  0  0  0  0  0  0
   -0.3794   -2.2781   -0.5856 H   0  0  0  0  0  0  0  0  0  0  0  0
   -1.1692   -3.3421    0.5398 H   0  0  0  0  0  0  0  0  0  0  0  0
   -2.8110   -2.4381   -1.0100 H   0  0  0  0  0  0  0  0  0  0  0  0
   -3.1414   -1.9525    0.6410 H   0  0  0  0  0  0  0  0  0  0  0  0
   -4.1909    0.0082   -2.0144 H   0  0  0  0  0  0  0  0  0  0  0  0
   -5.2468    1.9332   -0.9069 H   0  0  0  0  0  0  0  0  0  0  0  0
   -4.8267    1.9005    1.3891 H   0  0  0  0  0  0  0  0  0  0  0  0
   -3.6317    3.0707    0.8495 H   0  0  0  0  0  0  0  0  0  0  0  0
   -3.2742    0.3279    1.9645 H   0  0  0  0  0  0  0  0  0  0  0  0
   -2.3576    1.8005    2.1858 H   0  0  0  0  0  0  0  0  0  0  0  0
   -1.4472    1.5317   -0.1263 H   0  0  0  0  0  0  0  0  0  0  0  0
    0.8687    0.4831    2.8163 H   0  0  0  0  0  0  0  0  0  0  0  0
   -0.8206    0.7701    3.1607 H   0  0  0  0  0  0  0  0  0  0  0  0
    0.0717    1.9132    2.1490 H   0  0  0  0  0  0  0  0  0  0  0  0
    0.6474   -0.2899   -0.8036 H   0  0  0  0  0  0  0  0  0  0  0  0
    0.8031    1.3624   -0.1570 H   0  0  0  0  0  0  0  0  0  0  0  0
    4.2696   -0.7021    1.6439 H   0  0  0  0  0  0  0  0  0  0  0  0
    4.4926    1.1204   -2.9705 H   0  0  0  0  0  0  0  0  0  0  0  0
    2.3331    0.9123   -1.8583 H   0  0  0  0  0  0  0  0  0  0  0  0
    7.0127    0.8320   -2.9418 H   0  0  0  0  0  0  0  0  0  0  0  0
    9.0145    0.1106   -1.6873 H   0  0  0  0  0  0  0  0  0  0  0  0
   -3.6069    3.3567   -1.3973 H   0  0  0  0  0  0  0  0  0  0  0  0
   -5.1101   -1.6957   -0.5815 H   0  0  0  0  0  0  0  0  0  0  0  0
   -6.0929   -0.2459   -0.4848 H   0  0  0  0  0  0  0  0  0  0  0  0
   -5.0097   -0.6473    0.8482 H   0  0  0  0  0  0  0  0  0  0  0  0
   -1.5930    0.8138   -2.3321 H   0  0  0  0  0  0  0  0  0  0  0  0
   -2.3529   -0.7057   -2.8159 H   0  0  0  0  0  0  0  0  0  0  0  0
   -0.8035   -0.7335   -2.0456 H   0  0  0  0  0  0  0  0  0  0  0  0
  1  2  1  0
  2  3  1  0
  3  4  1  0
  4  5  1  0
  5  6  1  0
  6  7  1  0
  7  8  1  0
  8  9  1  0
  9 10  1  0
 10 11  1  0
 11 12  1  0
 11 13  1  0
 13 14  1  0
 14 15  1  0
 15 16  2  0
 16 17  1  0
 17 18  2  0
 18 19  1  0
 19 20  2  0
 18 21  1  0
 21 22  2  0
 22 23  1  0
 23 24  2  0
 23 25  1  0
  7 26  1  0
  6 27  1  0
  5 28  1  0
 11  2  1  0
 10  5  1  0
 20 15  1  0
 25 17  1  0
  1 29  1  0
  1 30  1  0
  1 31  1  0
  2 32  1  0
  3 33  1  0
  3 34  1  0
  4 35  1  0
  4 36  1  0
  6 37  1  0
  7 38  1  0
  8 39  1  0
  8 40  1  0
  9 41  1  0
  9 42  1  0
 10 43  1  0
 12 44  1  0
 12 45  1  0
 12 46  1  0
 13 47  1  0
 13 48  1  0
 16 49  1  0
 19 50  1  0
 20 51  1  0
 21 52  1  0
 22 53  1  0
 26 54  1  0
 27 55  1  0
 27 56  1  0
 27 57  1  0
 28 58  1  0
 28 59  1  0
 28 60  1  0
M  END
>  <Name>  (100) 
Fecarpin

>  <PubChem ID>  (100) 
101321345

>  <CDB ID>  (100) 
CDB0100

>  <Smiles>  (100) 
CC1CCC2(C(C(CCC2C1(C)COC3=CC4=C(C=C3)C=CC(=O)O4)O)C)C

>  <Chemical class>  (100) 
7-Oxygenated Coumarins

>  <Natural source>  (100) 
Ferula microcarpa

>  <Molecular Formula>  (100) 
C24H32O4

>  <InChI-Key>  (100) 
VZHMLYJMPGDZPE-UHFFFAOYSA-N

>  <Total Molweight>  (100) 
384.514

>  <cLogP>  (100) 
4.4567

>  <cLogS>  (100) 
-5.235

>  <H-Acceptors>  (100) 
4

>  <H-Donors>  (100) 
1

>  <Rotatable Bonds>  (100) 
3

>  <Polar Surface Area>  (100) 
55.76

$$$$
CDB0101
     RDKit          3D

 64 67  0  0  0  0  0  0  0  0999 V2000
   -0.3738   -3.7710    0.2327 C   0  0  0  0  0  0  0  0  0  0  0  0
   -1.0613   -2.4535    0.6314 C   0  0  0  0  0  0  0  0  0  0  0  0
   -2.0309   -2.0469   -0.4724 C   0  0  0  0  0  0  0  0  0  0  0  0
   -2.9441   -0.8633   -0.1202 C   0  0  0  0  0  0  0  0  0  0  0  0
   -2.4004    0.1041    0.9945 C   0  0  0  0  0  0  0  0  0  0  0  0
   -2.9642    1.5631    0.7620 C   0  0  0  0  0  0  0  0  0  0  0  0
   -2.2944    2.5609    1.7017 C   0  0  0  0  0  0  0  0  0  0  0  0
   -2.9233    3.3441    2.4110 O   0  0  0  0  0  0  0  0  0  0  0  0
   -0.7916    2.5916    1.6520 C   0  0  0  0  0  0  0  0  0  0  0  0
   -0.2435    1.1967    1.9001 C   0  0  0  0  0  0  0  0  0  0  0  0
   -0.8234    0.1439    0.9185 C   0  0  0  0  0  0  0  0  0  0  0  0
   -0.0855   -1.2746    0.9945 C   0  0  0  0  0  0  0  0  0  0  0  0
    0.4988   -1.5545    2.4041 C   0  0  0  0  0  0  0  0  0  0  0  0
    1.1233   -1.2594   -0.0096 C   0  0  0  0  0  0  0  0  0  0  0  0
    1.9838   -0.1488    0.2438 O   0  0  0  0  0  0  0  0  0  0  0  0
    3.0555    0.0240   -0.5862 C   0  0  0  0  0  0  0  0  0  0  0  0
    3.8222    1.1582   -0.3157 C   0  0  0  0  0  0  0  0  0  0  0  0
    4.9402    1.4363   -1.0984 C   0  0  0  0  0  0  0  0  0  0  0  0
    5.3187    0.6074   -2.1503 C   0  0  0  0  0  0  0  0  0  0  0  0
    4.5533   -0.5275   -2.4189 C   0  0  0  0  0  0  0  0  0  0  0  0
    3.4250   -0.8184   -1.6388 C   0  0  0  0  0  0  0  0  0  0  0  0
    6.4961    0.9504   -2.9301 C   0  0  0  0  0  0  0  0  0  0  0  0
    7.1887    2.0515   -2.6230 C   0  0  0  0  0  0  0  0  0  0  0  0
    6.8060    2.9446   -1.5147 C   0  0  0  0  0  0  0  0  0  0  0  0
    7.4656    3.9468   -1.2646 O   0  0  0  0  0  0  0  0  0  0  0  0
    5.6784    2.5943   -0.7850 O   0  0  0  0  0  0  0  0  0  0  0  0
   -4.4900    1.6871    0.8604 C   0  0  0  0  0  0  0  0  0  0  0  0
   -2.8945   -0.3815    2.3855 C   0  0  0  0  0  0  0  0  0  0  0  0
   -3.1320   -0.1247   -1.3555 O   0  0  0  0  0  0  0  0  0  0  0  0
   -4.0652   -0.6089   -2.2222 C   0  0  0  0  0  0  0  0  0  0  0  0
   -4.7355   -1.6169   -2.0561 O   0  0  0  0  0  0  0  0  0  0  0  0
   -4.1522    0.2801   -3.4243 C   0  0  0  0  0  0  0  0  0  0  0  0
    0.1417   -3.6899   -0.7298 H   0  0  0  0  0  0  0  0  0  0  0  0
   -1.1182   -4.5693    0.1312 H   0  0  0  0  0  0  0  0  0  0  0  0
    0.3464   -4.0985    0.9873 H   0  0  0  0  0  0  0  0  0  0  0  0
   -1.6546   -2.7120    1.5138 H   0  0  0  0  0  0  0  0  0  0  0  0
   -2.6707   -2.9013   -0.7315 H   0  0  0  0  0  0  0  0  0  0  0  0
   -1.4692   -1.8300   -1.3909 H   0  0  0  0  0  0  0  0  0  0  0  0
   -3.9195   -1.2458    0.2086 H   0  0  0  0  0  0  0  0  0  0  0  0
   -2.6780    1.9068   -0.2415 H   0  0  0  0  0  0  0  0  0  0  0  0
   -0.4196    3.2821    2.4162 H   0  0  0  0  0  0  0  0  0  0  0  0
   -0.4825    2.9731    0.6730 H   0  0  0  0  0  0  0  0  0  0  0  0
    0.8450    1.2562    1.8176 H   0  0  0  0  0  0  0  0  0  0  0  0
   -0.4620    0.9100    2.9352 H   0  0  0  0  0  0  0  0  0  0  0  0
   -0.6094    0.5325   -0.0902 H   0  0  0  0  0  0  0  0  0  0  0  0
    0.9743   -2.5396    2.4526 H   0  0  0  0  0  0  0  0  0  0  0  0
   -0.2768   -1.5323    3.1749 H   0  0  0  0  0  0  0  0  0  0  0  0
    1.2707   -0.8316    2.6866 H   0  0  0  0  0  0  0  0  0  0  0  0
    1.7087   -2.1801    0.0999 H   0  0  0  0  0  0  0  0  0  0  0  0
    0.7398   -1.1921   -1.0350 H   0  0  0  0  0  0  0  0  0  0  0  0
    3.5498    1.8209    0.5007 H   0  0  0  0  0  0  0  0  0  0  0  0
    4.8218   -1.1980   -3.2319 H   0  0  0  0  0  0  0  0  0  0  0  0
    2.8597   -1.7132   -1.8792 H   0  0  0  0  0  0  0  0  0  0  0  0
    6.7967    0.3078   -3.7500 H   0  0  0  0  0  0  0  0  0  0  0  0
    8.0719    2.3440   -3.1777 H   0  0  0  0  0  0  0  0  0  0  0  0
   -4.8071    2.6923    0.5589 H   0  0  0  0  0  0  0  0  0  0  0  0
   -4.8488    1.5375    1.8839 H   0  0  0  0  0  0  0  0  0  0  0  0
   -5.0047    0.9760    0.2095 H   0  0  0  0  0  0  0  0  0  0  0  0
   -2.4636   -1.3301    2.6982 H   0  0  0  0  0  0  0  0  0  0  0  0
   -3.9805   -0.5268    2.3914 H   0  0  0  0  0  0  0  0  0  0  0  0
   -2.6664    0.3399    3.1765 H   0  0  0  0  0  0  0  0  0  0  0  0
   -4.9110   -0.1091   -4.1090 H   0  0  0  0  0  0  0  0  0  0  0  0
   -4.4434    1.2883   -3.1187 H   0  0  0  0  0  0  0  0  0  0  0  0
   -3.1902    0.2974   -3.9425 H   0  0  0  0  0  0  0  0  0  0  0  0
  1  2  1  0
  2  3  1  0
  3  4  1  0
  4  5  1  0
  5  6  1  0
  6  7  1  0
  7  8  2  0
  7  9  1  0
  9 10  1  0
 10 11  1  0
 11 12  1  0
 12 13  1  0
 12 14  1  0
 14 15  1  0
 15 16  1  0
 16 17  2  0
 17 18  1  0
 18 19  2  0
 19 20  1  0
 20 21  2  0
 19 22  1  0
 22 23  2  0
 23 24  1  0
 24 25  2  0
 24 26  1  0
  6 27  1  0
  5 28  1  0
  4 29  1  0
 29 30  1  0
 30 31  2  0
 30 32  1  0
 12  2  1  0
 11  5  1  0
 21 16  1  0
 26 18  1  0
  1 33  1  0
  1 34  1  0
  1 35  1  0
  2 36  1  0
  3 37  1  0
  3 38  1  0
  4 39  1  0
  6 40  1  0
  9 41  1  0
  9 42  1  0
 10 43  1  0
 10 44  1  0
 11 45  1  0
 13 46  1  0
 13 47  1  0
 13 48  1  0
 14 49  1  0
 14 50  1  0
 17 51  1  0
 20 52  1  0
 21 53  1  0
 22 54  1  0
 23 55  1  0
 27 56  1  0
 27 57  1  0
 27 58  1  0
 28 59  1  0
 28 60  1  0
 28 61  1  0
 32 62  1  0
 32 63  1  0
 32 64  1  0
M  END
>  <Name>  (101) 
Microlobin

>  <PubChem ID>  (101) 
46882990

>  <CDB ID>  (101) 
CDB0101

>  <Smiles>  (101) 
CC1CC(C2(C(C(=O)CCC2C1(C)COC3=CC4=C(C=C3)C=CC(=O)O4)C)C)OC(=O)C

>  <Chemical class>  (101) 
7-Oxygenated Coumarins

>  <Natural source>  (101) 
Ferula microloba

>  <Molecular Formula>  (101) 
C26H32O6

>  <InChI-Key>  (101) 
PIGAODQEDMJGTF-UHFFFAOYSA-N

>  <Total Molweight>  (101) 
440.534

>  <cLogP>  (101) 
4.2329

>  <cLogS>  (101) 
-5.297

>  <H-Acceptors>  (101) 
6

>  <H-Donors>  (101) 
0

>  <Rotatable Bonds>  (101) 
5

>  <Polar Surface Area>  (101) 
78.9

$$$$
CDB0102
     RDKit          3D

 39 41  0  0  0  0  0  0  0  0999 V2000
    2.8829    1.2288    0.4682 C   0  0  0  0  0  0  0  0  0  0  0  0
    1.5449    0.9841    0.1271 C   0  0  0  0  0  0  0  0  0  0  0  0
    1.1581   -0.2580   -0.3842 C   0  0  0  0  0  0  0  0  0  0  0  0
    2.1197   -1.2565   -0.5493 C   0  0  0  0  0  0  0  0  0  0  0  0
    3.4459   -1.0005   -0.2077 C   0  0  0  0  0  0  0  0  0  0  0  0
    3.8437    0.2321    0.3004 C   0  0  0  0  0  0  0  0  0  0  0  0
    5.2416    0.4373    0.6403 C   0  0  0  0  0  0  0  0  0  0  0  0
    6.1145   -0.5581    0.4570 C   0  0  0  0  0  0  0  0  0  0  0  0
    5.7168   -1.8709   -0.0821 C   0  0  0  0  0  0  0  0  0  0  0  0
    6.5465   -2.7590   -0.2398 O   0  0  0  0  0  0  0  0  0  0  0  0
    4.3755   -2.0418   -0.3968 O   0  0  0  0  0  0  0  0  0  0  0  0
   -0.1068   -0.6228   -0.7508 O   0  0  0  0  0  0  0  0  0  0  0  0
   -1.1505    0.3628   -0.6736 C   0  0  0  0  0  0  0  0  0  0  0  0
   -2.3559   -0.2317   -1.4431 C   0  0  0  0  0  0  0  0  0  0  0  0
   -3.6449    0.4866   -1.0338 C   0  0  0  0  0  0  0  0  0  0  0  0
   -3.8674    0.3481    0.4876 C   0  0  0  0  0  0  0  0  0  0  0  0
   -2.5654   -0.0292    1.2236 C   0  0  0  0  0  0  0  0  0  0  0  0
   -1.4540    0.6996    0.6881 O   0  0  0  0  0  0  0  0  0  0  0  0
   -2.6591    0.2989    2.7174 C   0  0  0  0  0  0  0  0  0  0  0  0
   -1.4546   -0.1085    3.3698 O   0  0  0  0  0  0  0  0  0  0  0  0
   -4.8864   -0.6185    0.7599 O   0  0  0  0  0  0  0  0  0  0  0  0
   -3.5471    1.8776   -1.3760 O   0  0  0  0  0  0  0  0  0  0  0  0
   -2.1642   -0.1803   -2.8637 O   0  0  0  0  0  0  0  0  0  0  0  0
    3.1568    2.2032    0.8664 H   0  0  0  0  0  0  0  0  0  0  0  0
    0.8298    1.7868    0.2830 H   0  0  0  0  0  0  0  0  0  0  0  0
    1.8392   -2.2303   -0.9404 H   0  0  0  0  0  0  0  0  0  0  0  0
    5.5566    1.3952    1.0389 H   0  0  0  0  0  0  0  0  0  0  0  0
    7.1649   -0.4480    0.6974 H   0  0  0  0  0  0  0  0  0  0  0  0
   -0.8208    1.2719   -1.1925 H   0  0  0  0  0  0  0  0  0  0  0  0
   -2.4571   -1.2983   -1.2041 H   0  0  0  0  0  0  0  0  0  0  0  0
   -4.4880    0.0791   -1.6040 H   0  0  0  0  0  0  0  0  0  0  0  0
   -4.2383    1.3053    0.8738 H   0  0  0  0  0  0  0  0  0  0  0  0
   -2.3523   -1.1033    1.1368 H   0  0  0  0  0  0  0  0  0  0  0  0
   -3.4960   -0.2213    3.1921 H   0  0  0  0  0  0  0  0  0  0  0  0
   -2.7691    1.3759    2.8813 H   0  0  0  0  0  0  0  0  0  0  0  0
   -0.7249    0.2432    2.8236 H   0  0  0  0  0  0  0  0  0  0  0  0
   -4.6105   -1.4842    0.4099 H   0  0  0  0  0  0  0  0  0  0  0  0
   -4.4562    2.2246   -1.4224 H   0  0  0  0  0  0  0  0  0  0  0  0
   -1.2680   -0.5201   -3.0424 H   0  0  0  0  0  0  0  0  0  0  0  0
  1  2  2  0
  2  3  1  0
  3  4  2  0
  4  5  1  0
  5  6  2  0
  6  7  1  0
  7  8  2  0
  8  9  1  0
  9 10  2  0
  9 11  1  0
  3 12  1  0
 12 13  1  0
 13 14  1  0
 14 15  1  0
 15 16  1  0
 16 17  1  0
 17 18  1  0
 17 19  1  0
 19 20  1  0
 16 21  1  0
 15 22  1  0
 14 23  1  0
  6  1  1  0
 11  5  1  0
 18 13  1  0
  1 24  1  0
  2 25  1  0
  4 26  1  0
  7 27  1  0
  8 28  1  0
 13 29  1  0
 14 30  1  0
 15 31  1  0
 16 32  1  0
 17 33  1  0
 19 34  1  0
 19 35  1  0
 20 36  1  0
 21 37  1  0
 22 38  1  0
 23 39  1  0
M  END
>  <Name>  (102) 
Skimmin

>  <PubChem ID>  (102) 
99693

>  <CDB ID>  (102) 
CDB0102

>  <Smiles>  (102) 
C1=CC(=CC2=C1C=CC(=O)O2)OC3C(C(C(C(O3)CO)O)O)O

>  <Chemical class>  (102) 
7-Oxygenated Coumarins

>  <Natural source>  (102) 
Skimmia japonica

>  <Molecular Formula>  (102) 
C15H16O8

>  <InChI-Key>  (102) 
VPAOSFFTKWUGAD-UHFFFAOYSA-N

>  <Total Molweight>  (102) 
324.284

>  <cLogP>  (102) 
-0.8376

>  <cLogS>  (102) 
-1.96

>  <H-Acceptors>  (102) 
8

>  <H-Donors>  (102) 
4

>  <Rotatable Bonds>  (102) 
3

>  <Polar Surface Area>  (102) 
125.68

$$$$
CDB0103
     RDKit          3D

 56 59  0  0  0  0  0  0  0  0999 V2000
    2.0998   -2.5238    0.0134 C   0  0  0  0  0  0  0  0  0  0  0  0
    3.5431   -2.4762    0.5080 C   0  0  0  0  0  0  0  0  0  0  0  0
    3.5974   -1.0544    1.0463 C   0  0  0  0  0  0  0  0  0  0  0  0
    2.7243   -0.2888    0.0409 C   0  0  0  0  0  0  0  0  0  0  0  0
    1.7843   -1.2196   -0.5001 O   0  0  0  0  0  0  0  0  0  0  0  0
    2.0926    0.7923    0.7233 O   0  0  0  0  0  0  0  0  0  0  0  0
    1.3396    1.6633   -0.1479 C   0  0  0  0  0  0  0  0  0  0  0  0
    1.2180    3.0131    0.5839 C   0  0  0  0  0  0  0  0  0  0  0  0
    0.3318    3.9858   -0.1956 C   0  0  0  0  0  0  0  0  0  0  0  0
   -1.0127    3.3127   -0.5435 C   0  0  0  0  0  0  0  0  0  0  0  0
   -0.8139    2.0847   -1.2598 O   0  0  0  0  0  0  0  0  0  0  0  0
   -0.0648    1.1141   -0.5147 C   0  0  0  0  0  0  0  0  0  0  0  0
   -0.7455    0.6953    0.6769 O   0  0  0  0  0  0  0  0  0  0  0  0
   -1.7972   -0.1668    0.5487 C   0  0  0  0  0  0  0  0  0  0  0  0
   -2.4432   -0.5044   -0.6380 C   0  0  0  0  0  0  0  0  0  0  0  0
   -3.5124   -1.4004   -0.5981 C   0  0  0  0  0  0  0  0  0  0  0  0
   -3.9588   -1.9657    0.5944 C   0  0  0  0  0  0  0  0  0  0  0  0
   -3.3170   -1.6187    1.7816 C   0  0  0  0  0  0  0  0  0  0  0  0
   -2.2441   -0.7208    1.7546 C   0  0  0  0  0  0  0  0  0  0  0  0
   -5.0774   -2.8926    0.5618 C   0  0  0  0  0  0  0  0  0  0  0  0
   -5.6563   -3.1830   -0.6073 C   0  0  0  0  0  0  0  0  0  0  0  0
   -5.2050   -2.5964   -1.8816 C   0  0  0  0  0  0  0  0  0  0  0  0
   -5.7621   -2.8858   -2.9342 O   0  0  0  0  0  0  0  0  0  0  0  0
   -4.1348   -1.7145   -1.8240 O   0  0  0  0  0  0  0  0  0  0  0  0
   -1.9041    4.2042   -1.4159 C   0  0  0  0  0  0  0  0  0  0  0  0
   -2.1083    5.4848   -0.8316 O   0  0  0  0  0  0  0  0  0  0  0  0
    1.0354    4.3866   -1.3786 O   0  0  0  0  0  0  0  0  0  0  0  0
    0.7042    2.8416    1.9124 O   0  0  0  0  0  0  0  0  0  0  0  0
    4.9180   -0.5171    1.1295 O   0  0  0  0  0  0  0  0  0  0  0  0
    4.5598   -2.7477   -0.6104 C   0  0  0  0  0  0  0  0  0  0  0  0
    4.4340   -4.1164   -1.0178 O   0  0  0  0  0  0  0  0  0  0  0  0
    3.7471   -3.4427    1.5470 O   0  0  0  0  0  0  0  0  0  0  0  0
    1.9297   -3.2698   -0.7687 H   0  0  0  0  0  0  0  0  0  0  0  0
    1.4023   -2.7435    0.8307 H   0  0  0  0  0  0  0  0  0  0  0  0
    3.1690   -1.0140    2.0563 H   0  0  0  0  0  0  0  0  0  0  0  0
    3.3390    0.1105   -0.7752 H   0  0  0  0  0  0  0  0  0  0  0  0
    1.9037    1.8423   -1.0732 H   0  0  0  0  0  0  0  0  0  0  0  0
    2.2245    3.4334    0.7004 H   0  0  0  0  0  0  0  0  0  0  0  0
    0.1549    4.8819    0.4112 H   0  0  0  0  0  0  0  0  0  0  0  0
   -1.5574    3.1037    0.3863 H   0  0  0  0  0  0  0  0  0  0  0  0
    0.0743    0.2524   -1.1740 H   0  0  0  0  0  0  0  0  0  0  0  0
   -2.1519   -0.0861   -1.5953 H   0  0  0  0  0  0  0  0  0  0  0  0
   -3.6367   -2.0347    2.7335 H   0  0  0  0  0  0  0  0  0  0  0  0
   -1.7470   -0.4516    2.6843 H   0  0  0  0  0  0  0  0  0  0  0  0
   -5.4264   -3.3362    1.4876 H   0  0  0  0  0  0  0  0  0  0  0  0
   -6.4921   -3.8686   -0.6758 H   0  0  0  0  0  0  0  0  0  0  0  0
   -2.8781    3.7291   -1.5809 H   0  0  0  0  0  0  0  0  0  0  0  0
   -1.4635    4.3451   -2.4090 H   0  0  0  0  0  0  0  0  0  0  0  0
   -2.7180    5.3656   -0.0811 H   0  0  0  0  0  0  0  0  0  0  0  0
    0.5657    5.1678   -1.7280 H   0  0  0  0  0  0  0  0  0  0  0  0
    1.0564    1.9825    2.2201 H   0  0  0  0  0  0  0  0  0  0  0  0
    4.8406    0.3245    1.6159 H   0  0  0  0  0  0  0  0  0  0  0  0
    5.5841   -2.6212   -0.2449 H   0  0  0  0  0  0  0  0  0  0  0  0
    4.4036   -2.1061   -1.4829 H   0  0  0  0  0  0  0  0  0  0  0  0
    5.1157   -4.2672   -1.6979 H   0  0  0  0  0  0  0  0  0  0  0  0
    3.9362   -4.2824    1.0799 H   0  0  0  0  0  0  0  0  0  0  0  0
  1  2  1  0
  2  3  1  0
  3  4  1  0
  4  5  1  0
  4  6  1  0
  6  7  1  0
  7  8  1  0
  8  9  1  0
  9 10  1  0
 10 11  1  0
 11 12  1  0
 12 13  1  0
 13 14  1  0
 14 15  2  0
 15 16  1  0
 16 17  2  0
 17 18  1  0
 18 19  2  0
 17 20  1  0
 20 21  2  0
 21 22  1  0
 22 23  2  0
 22 24  1  0
 10 25  1  0
 25 26  1  0
  9 27  1  0
  8 28  1  0
  3 29  1  0
  2 30  1  0
 30 31  1  0
  2 32  1  0
  5  1  1  0
 12  7  1  0
 19 14  1  0
 24 16  1  0
  1 33  1  0
  1 34  1  0
  3 35  1  0
  4 36  1  0
  7 37  1  0
  8 38  1  0
  9 39  1  0
 10 40  1  0
 12 41  1  0
 15 42  1  0
 18 43  1  0
 19 44  1  0
 20 45  1  0
 21 46  1  0
 25 47  1  0
 25 48  1  0
 26 49  1  0
 27 50  1  0
 28 51  1  0
 29 52  1  0
 30 53  1  0
 30 54  1  0
 31 55  1  0
 32 56  1  0
M  END
>  <Name>  (103) 
Isoapiosylskimmin

>  <PubChem ID>  (103) 
10766203

>  <CDB ID>  (103) 
CDB0103

>  <Smiles>  (103) 
C1C(C(C(O1)OC2C(C(C(OC2OC3=CC4=C(C=C3)C=CC(=O)O4)CO)O)O)O)(CO)O

>  <Chemical class>  (103) 
7-Oxygenated Coumarins

>  <Natural source>  (103) 
Angelica gigas

>  <Molecular Formula>  (103) 
C20H24O12

>  <InChI-Key>  (103) 
UUOIUESIXZINPC-UHFFFAOYSA-N

>  <Total Molweight>  (103) 
456.399

>  <cLogP>  (103) 
-2.1913

>  <cLogS>  (103) 
-1.52

>  <H-Acceptors>  (103) 
12

>  <H-Donors>  (103) 
6

>  <Rotatable Bonds>  (103) 
6

>  <Polar Surface Area>  (103) 
184.6

$$$$
CDB0104
     RDKit          3D

 56 59  0  0  0  0  0  0  0  0999 V2000
    4.3410    1.5215    0.8900 C   0  0  0  0  0  0  0  0  0  0  0  0
    3.2336    2.2105    1.6934 C   0  0  0  0  0  0  0  0  0  0  0  0
    2.0647    1.2705    1.4458 C   0  0  0  0  0  0  0  0  0  0  0  0
    2.3214    0.7698    0.0191 C   0  0  0  0  0  0  0  0  0  0  0  0
    3.7413    0.7396   -0.1574 O   0  0  0  0  0  0  0  0  0  0  0  0
    1.7598   -0.5401   -0.0942 O   0  0  0  0  0  0  0  0  0  0  0  0
    1.7733   -1.0046   -1.4506 C   0  0  0  0  0  0  0  0  0  0  0  0
    1.1689   -2.4231   -1.5058 C   0  0  0  0  0  0  0  0  0  0  0  0
    1.0765   -3.0211   -2.9227 C   0  0  0  0  0  0  0  0  0  0  0  0
   -0.1103   -2.4608   -3.7268 C   0  0  0  0  0  0  0  0  0  0  0  0
   -1.3956   -2.4585   -2.8989 C   0  0  0  0  0  0  0  0  0  0  0  0
   -1.1557   -1.8186   -1.5111 C   0  0  0  0  0  0  0  0  0  0  0  0
   -0.1037   -2.5107   -0.8379 O   0  0  0  0  0  0  0  0  0  0  0  0
   -2.3989   -1.9516   -0.7944 O   0  0  0  0  0  0  0  0  0  0  0  0
   -2.5816   -1.0633    0.2296 C   0  0  0  0  0  0  0  0  0  0  0  0
   -3.8748   -0.5673    0.3831 C   0  0  0  0  0  0  0  0  0  0  0  0
   -4.1430    0.3262    1.4182 C   0  0  0  0  0  0  0  0  0  0  0  0
   -3.1564    0.7228    2.3180 C   0  0  0  0  0  0  0  0  0  0  0  0
   -1.8698    0.2036    2.1760 C   0  0  0  0  0  0  0  0  0  0  0  0
   -1.5860   -0.6910    1.1365 C   0  0  0  0  0  0  0  0  0  0  0  0
   -3.5029    1.6507    3.3812 C   0  0  0  0  0  0  0  0  0  0  0  0
   -4.7551    2.1092    3.4703 C   0  0  0  0  0  0  0  0  0  0  0  0
   -5.8134    1.7110    2.5250 C   0  0  0  0  0  0  0  0  0  0  0  0
   -6.9483    2.1611    2.6319 O   0  0  0  0  0  0  0  0  0  0  0  0
   -5.4593    0.8173    1.5234 O   0  0  0  0  0  0  0  0  0  0  0  0
   -1.8561   -3.8143   -2.7698 O   0  0  0  0  0  0  0  0  0  0  0  0
    0.2157   -1.1352   -4.1748 O   0  0  0  0  0  0  0  0  0  0  0  0
    2.2900   -2.8272   -3.6554 O   0  0  0  0  0  0  0  0  0  0  0  0
    2.1578    0.1805    2.4005 O   0  0  0  0  0  0  0  0  0  0  0  0
    2.9685    3.6480    1.2246 C   0  0  0  0  0  0  0  0  0  0  0  0
    2.5152    3.7246   -0.1187 O   0  0  0  0  0  0  0  0  0  0  0  0
    3.5641    2.2538    3.0890 O   0  0  0  0  0  0  0  0  0  0  0  0
    4.9270    0.8395    1.5167 H   0  0  0  0  0  0  0  0  0  0  0  0
    5.0427    2.2318    0.4407 H   0  0  0  0  0  0  0  0  0  0  0  0
    1.0754    1.7185    1.5723 H   0  0  0  0  0  0  0  0  0  0  0  0
    1.8819    1.4410   -0.7262 H   0  0  0  0  0  0  0  0  0  0  0  0
    2.8043   -1.0234   -1.8207 H   0  0  0  0  0  0  0  0  0  0  0  0
    1.1983   -0.2991   -2.0555 H   0  0  0  0  0  0  0  0  0  0  0  0
    1.8435   -3.0588   -0.9181 H   0  0  0  0  0  0  0  0  0  0  0  0
    0.9276   -4.1029   -2.8167 H   0  0  0  0  0  0  0  0  0  0  0  0
   -0.2303   -3.0742   -4.6285 H   0  0  0  0  0  0  0  0  0  0  0  0
   -2.1881   -1.9039   -3.4144 H   0  0  0  0  0  0  0  0  0  0  0  0
   -0.9149   -0.7548   -1.6308 H   0  0  0  0  0  0  0  0  0  0  0  0
   -4.6658   -0.8685   -0.2970 H   0  0  0  0  0  0  0  0  0  0  0  0
   -1.0786    0.4702    2.8736 H   0  0  0  0  0  0  0  0  0  0  0  0
   -0.5863   -1.1107    1.0767 H   0  0  0  0  0  0  0  0  0  0  0  0
   -2.7404    1.9550    4.0898 H   0  0  0  0  0  0  0  0  0  0  0  0
   -5.0559    2.8003    4.2482 H   0  0  0  0  0  0  0  0  0  0  0  0
   -2.3585   -3.8542   -1.9310 H   0  0  0  0  0  0  0  0  0  0  0  0
   -0.3936   -0.9284   -4.9094 H   0  0  0  0  0  0  0  0  0  0  0  0
    2.1791   -1.9903   -4.1493 H   0  0  0  0  0  0  0  0  0  0  0  0
    1.9847   -0.6274    1.8683 H   0  0  0  0  0  0  0  0  0  0  0  0
    3.8801    4.2492    1.3233 H   0  0  0  0  0  0  0  0  0  0  0  0
    2.2119    4.1151    1.8659 H   0  0  0  0  0  0  0  0  0  0  0  0
    2.4745    4.6711   -0.3484 H   0  0  0  0  0  0  0  0  0  0  0  0
    3.3005    1.3715    3.4329 H   0  0  0  0  0  0  0  0  0  0  0  0
  1  2  1  0
  2  3  1  0
  3  4  1  0
  4  5  1  0
  4  6  1  0
  6  7  1  0
  7  8  1  0
  8  9  1  0
  9 10  1  0
 10 11  1  0
 11 12  1  0
 12 13  1  0
 12 14  1  0
 14 15  1  0
 15 16  2  0
 16 17  1  0
 17 18  2  0
 18 19  1  0
 19 20  2  0
 18 21  1  0
 21 22  2  0
 22 23  1  0
 23 24  2  0
 23 25  1  0
 11 26  1  0
 10 27  1  0
  9 28  1  0
  3 29  1  0
  2 30  1  0
 30 31  1  0
  2 32  1  0
  5  1  1  0
 13  8  1  0
 20 15  1  0
 25 17  1  0
  1 33  1  0
  1 34  1  0
  3 35  1  0
  4 36  1  0
  7 37  1  0
  7 38  1  0
  8 39  1  0
  9 40  1  0
 10 41  1  0
 11 42  1  0
 12 43  1  0
 16 44  1  0
 19 45  1  0
 20 46  1  0
 21 47  1  0
 22 48  1  0
 26 49  1  0
 27 50  1  0
 28 51  1  0
 29 52  1  0
 30 53  1  0
 30 54  1  0
 31 55  1  0
 32 56  1  0
M  END
>  <Name>  (104) 
Adicardin

>  <PubChem ID>  (104) 
146156287

>  <CDB ID>  (104) 
CDB0104

>  <Smiles>  (104) 
C1C(C(C(O1)OCC2C(C(C(C(O2)OC3=CC4=C(C=C3)C=CC(=O)O4)O)O)O)O)(CO)O

>  <Chemical class>  (104) 
7-Oxygenated Coumarins

>  <Natural source>  (104) 
Gmelina arborea

>  <Molecular Formula>  (104) 
C20H24O12

>  <InChI-Key>  (104) 
SXPBJYHKMRWZNA-UHFFFAOYSA-N

>  <Total Molweight>  (104) 
456.399

>  <cLogP>  (104) 
-2.1913

>  <cLogS>  (104) 
-1.52

>  <H-Acceptors>  (104) 
12

>  <H-Donors>  (104) 
6

>  <Rotatable Bonds>  (104) 
6

>  <Polar Surface Area>  (104) 
184.6

$$$$
CDB0105
     RDKit          3D

 40 42  0  0  0  0  0  0  0  0999 V2000
    3.1571   -1.9627    2.3417 C   0  0  0  0  0  0  0  0  0  0  0  0
    4.4395   -2.0130    2.7135 C   0  0  0  0  0  0  0  0  0  0  0  0
    5.4506   -1.0879    2.1772 C   0  0  0  0  0  0  0  0  0  0  0  0
    6.6209   -1.1609    2.5339 O   0  0  0  0  0  0  0  0  0  0  0  0
    5.0125   -0.1446    1.2577 O   0  0  0  0  0  0  0  0  0  0  0  0
    3.6611   -0.0821    0.8600 C   0  0  0  0  0  0  0  0  0  0  0  0
    2.7162   -0.9653    1.3744 C   0  0  0  0  0  0  0  0  0  0  0  0
    1.3910   -0.8560    0.9302 C   0  0  0  0  0  0  0  0  0  0  0  0
    1.0017    0.1323    0.0022 C   0  0  0  0  0  0  0  0  0  0  0  0
    1.9979    0.9956   -0.4882 C   0  0  0  0  0  0  0  0  0  0  0  0
    3.3236    0.8955   -0.0708 C   0  0  0  0  0  0  0  0  0  0  0  0
    1.6522    1.9560   -1.4006 O   0  0  0  0  0  0  0  0  0  0  0  0
   -0.4483    0.3403   -0.4165 C   0  0  0  0  0  0  0  0  0  0  0  0
   -1.1908    1.2699    0.5751 C   0  0  0  0  0  0  0  0  0  0  0  0
   -2.6744    1.3716    0.2031 C   0  0  0  0  0  0  0  0  0  0  0  0
   -3.3057   -0.0086    0.0159 C   0  0  0  0  0  0  0  0  0  0  0  0
   -2.4580   -0.9120   -0.9077 C   0  0  0  0  0  0  0  0  0  0  0  0
   -1.0898   -0.9564   -0.4752 O   0  0  0  0  0  0  0  0  0  0  0  0
   -2.5787   -0.6277   -2.4158 C   0  0  0  0  0  0  0  0  0  0  0  0
   -3.9422   -0.7122   -2.8281 O   0  0  0  0  0  0  0  0  0  0  0  0
   -4.6579    0.1599   -0.4217 O   0  0  0  0  0  0  0  0  0  0  0  0
   -2.8085    2.1395   -1.0088 O   0  0  0  0  0  0  0  0  0  0  0  0
   -0.6466    2.5957    0.5909 O   0  0  0  0  0  0  0  0  0  0  0  0
    0.4744   -1.7547    1.4187 O   0  0  0  0  0  0  0  0  0  0  0  0
    2.4253   -2.6523    2.7494 H   0  0  0  0  0  0  0  0  0  0  0  0
    4.7967   -2.7410    3.4312 H   0  0  0  0  0  0  0  0  0  0  0  0
    4.0927    1.5596   -0.4511 H   0  0  0  0  0  0  0  0  0  0  0  0
    2.4000    2.5685   -1.5092 H   0  0  0  0  0  0  0  0  0  0  0  0
   -0.4539    0.7647   -1.4259 H   0  0  0  0  0  0  0  0  0  0  0  0
   -1.1116    0.8646    1.5913 H   0  0  0  0  0  0  0  0  0  0  0  0
   -3.2141    1.9414    0.9688 H   0  0  0  0  0  0  0  0  0  0  0  0
   -3.3443   -0.4856    1.0034 H   0  0  0  0  0  0  0  0  0  0  0  0
   -2.8509   -1.9285   -0.7712 H   0  0  0  0  0  0  0  0  0  0  0  0
   -1.9954   -1.3666   -2.9766 H   0  0  0  0  0  0  0  0  0  0  0  0
   -2.1967    0.3581   -2.6905 H   0  0  0  0  0  0  0  0  0  0  0  0
   -3.9427   -0.6220   -3.8001 H   0  0  0  0  0  0  0  0  0  0  0  0
   -4.7382   -0.2450   -1.3142 H   0  0  0  0  0  0  0  0  0  0  0  0
   -3.7717    2.1484   -1.1876 H   0  0  0  0  0  0  0  0  0  0  0  0
   -0.9318    3.0041   -0.2514 H   0  0  0  0  0  0  0  0  0  0  0  0
   -0.2612   -1.7808    0.7718 H   0  0  0  0  0  0  0  0  0  0  0  0
  1  2  2  0
  2  3  1  0
  3  4  2  0
  3  5  1  0
  5  6  1  0
  6  7  1  0
  7  8  2  0
  8  9  1  0
  9 10  2  0
 10 11  1  0
 10 12  1  0
  9 13  1  0
 13 14  1  0
 14 15  1  0
 15 16  1  0
 16 17  1  0
 17 18  1  0
 17 19  1  0
 19 20  1  0
 16 21  1  0
 15 22  1  0
 14 23  1  0
  8 24  1  0
  7  1  1  0
 11  6  2  0
 18 13  1  0
  1 25  1  0
  2 26  1  0
 11 27  1  0
 12 28  1  0
 13 29  1  0
 14 30  1  0
 15 31  1  0
 16 32  1  0
 17 33  1  0
 19 34  1  0
 19 35  1  0
 20 36  1  0
 21 37  1  0
 22 38  1  0
 23 39  1  0
 24 40  1  0
M  END
>  <Name>  (105) 
Dauroside A

>  <PubChem ID>  (105) 
101311687

>  <CDB ID>  (105) 
CDB0105

>  <Smiles>  (105) 
C1=CC(=O)OC2=C1C(=C(C(=C2)O)C3C(C(C(C(O3)CO)O)O)O)O

>  <Chemical class>  (105) 
7-Oxygenated Coumarins

>  <Natural source>  (105) 
Haplophyllum dauricum

>  <Molecular Formula>  (105) 
C15H16O9

>  <InChI-Key>  (105) 
MIDRSLXOVDOSTL-UHFFFAOYSA-N

>  <Total Molweight>  (105) 
340.283

>  <cLogP>  (105) 
-1.6077

>  <cLogS>  (105) 
-1.191

>  <H-Acceptors>  (105) 
9

>  <H-Donors>  (105) 
6

>  <Rotatable Bonds>  (105) 
2

>  <Polar Surface Area>  (105) 
156.91

$$$$
CDB0106
     RDKit          3D

 55 59  0  0  0  0  0  0  0  0999 V2000
    3.5663    0.2906   -1.9573 C   0  0  0  0  0  0  0  0  0  0  0  0
    2.8406   -0.5752   -0.8905 C   0  0  0  0  0  0  0  0  0  0  0  0
    2.6008   -1.9549   -1.5145 C   0  0  0  0  0  0  0  0  0  0  0  0
    1.1375   -2.1511   -1.8510 C   0  0  0  0  0  0  0  0  0  0  0  0
    0.3460   -2.1056   -0.5572 C   0  0  0  0  0  0  0  0  0  0  0  0
    0.3842   -0.7175    0.1952 C   0  0  0  0  0  0  0  0  0  0  0  0
    1.5819    0.1691   -0.3620 C   0  0  0  0  0  0  0  0  0  0  0  0
    2.2618    1.1777    0.5982 C   0  0  0  0  0  0  0  0  0  0  0  0
    3.4160    0.5201    1.1406 O   0  0  0  0  0  0  0  0  0  0  0  0
    3.7095   -0.6438    0.3613 C   0  0  0  0  0  0  0  0  0  0  0  0
    1.4272    1.6674    1.6308 O   0  0  0  0  0  0  0  0  0  0  0  0
    2.0749    2.6581    2.4192 C   0  0  0  0  0  0  0  0  0  0  0  0
    0.4666   -1.0101    1.7094 C   0  0  0  0  0  0  0  0  0  0  0  0
   -0.4816   -2.0173    2.1103 O   0  0  0  0  0  0  0  0  0  0  0  0
   -1.7509   -1.9994    1.6430 C   0  0  0  0  0  0  0  0  0  0  0  0
   -2.5424   -2.8756    1.9768 O   0  0  0  0  0  0  0  0  0  0  0  0
   -2.1570   -0.8001    0.8239 C   0  0  0  0  0  0  0  0  0  0  0  0
   -1.0517   -0.0542   -0.0155 C   0  0  0  0  0  0  0  0  0  0  0  0
   -1.2029    1.4842    0.1986 C   0  0  0  0  0  0  0  0  0  0  0  0
   -2.6643    1.9799    0.1037 C   0  0  0  0  0  0  0  0  0  0  0  0
   -3.6721    1.0650    0.8103 C   0  0  0  0  0  0  0  0  0  0  0  0
   -2.9329    0.1476    1.7781 C   0  0  0  0  0  0  0  0  0  0  0  0
   -4.2390    0.0501   -0.1453 C   0  0  0  0  0  0  0  0  0  0  0  0
   -5.3831    0.0746   -0.8329 C   0  0  0  0  0  0  0  0  0  0  0  0
   -3.2766   -1.0966   -0.1556 C   0  0  0  0  0  0  0  0  0  0  0  0
   -3.3544   -2.0453   -0.9178 O   0  0  0  0  0  0  0  0  0  0  0  0
   -0.4555    2.2152   -0.7656 O   0  0  0  0  0  0  0  0  0  0  0  0
    2.9287    0.4381   -2.8364 H   0  0  0  0  0  0  0  0  0  0  0  0
    3.8533    1.2785   -1.5856 H   0  0  0  0  0  0  0  0  0  0  0  0
    4.4898   -0.1965   -2.2928 H   0  0  0  0  0  0  0  0  0  0  0  0
    3.1971   -2.0974   -2.4241 H   0  0  0  0  0  0  0  0  0  0  0  0
    2.9230   -2.7528   -0.8330 H   0  0  0  0  0  0  0  0  0  0  0  0
    0.7825   -1.3950   -2.5602 H   0  0  0  0  0  0  0  0  0  0  0  0
    1.0023   -3.1289   -2.3276 H   0  0  0  0  0  0  0  0  0  0  0  0
   -0.6785   -2.4122   -0.7909 H   0  0  0  0  0  0  0  0  0  0  0  0
    0.7445   -2.8949    0.0953 H   0  0  0  0  0  0  0  0  0  0  0  0
    1.1714    0.7133   -1.2184 H   0  0  0  0  0  0  0  0  0  0  0  0
    2.6154    2.0377    0.0162 H   0  0  0  0  0  0  0  0  0  0  0  0
    4.7820   -0.6661    0.1427 H   0  0  0  0  0  0  0  0  0  0  0  0
    3.4812   -1.5167    0.9812 H   0  0  0  0  0  0  0  0  0  0  0  0
    1.3582    3.0243    3.1594 H   0  0  0  0  0  0  0  0  0  0  0  0
    2.9317    2.2353    2.9519 H   0  0  0  0  0  0  0  0  0  0  0  0
    2.3917    3.5016    1.7982 H   0  0  0  0  0  0  0  0  0  0  0  0
    1.4512   -1.4000    1.9789 H   0  0  0  0  0  0  0  0  0  0  0  0
    0.2696   -0.1434    2.3423 H   0  0  0  0  0  0  0  0  0  0  0  0
   -1.2552   -0.1907   -1.0902 H   0  0  0  0  0  0  0  0  0  0  0  0
   -0.8276    1.7557    1.1873 H   0  0  0  0  0  0  0  0  0  0  0  0
   -2.9453    2.1454   -0.9452 H   0  0  0  0  0  0  0  0  0  0  0  0
   -2.7054    2.9762    0.5648 H   0  0  0  0  0  0  0  0  0  0  0  0
   -4.4593    1.6424    1.3050 H   0  0  0  0  0  0  0  0  0  0  0  0
   -2.2790    0.6845    2.4743 H   0  0  0  0  0  0  0  0  0  0  0  0
   -3.6517   -0.4073    2.3996 H   0  0  0  0  0  0  0  0  0  0  0  0
   -5.6661   -0.7581   -1.4724 H   0  0  0  0  0  0  0  0  0  0  0  0
   -6.0615    0.9186   -0.7757 H   0  0  0  0  0  0  0  0  0  0  0  0
   -0.4930    3.1555   -0.5156 H   0  0  0  0  0  0  0  0  0  0  0  0
  1  2  1  0
  2  3  1  0
  3  4  1  0
  4  5  1  0
  5  6  1  0
  6  7  1  0
  7  8  1  0
  8  9  1  0
  9 10  1  0
  8 11  1  0
 11 12  1  0
  6 13  1  0
 13 14  1  0
 14 15  1  0
 15 16  2  0
 15 17  1  0
 17 18  1  0
 18 19  1  0
 19 20  1  0
 20 21  1  0
 21 22  1  0
 21 23  1  0
 23 24  2  0
 23 25  1  0
 25 26  2  0
 19 27  1  0
  7  2  1  0
 10  2  1  0
 18  6  1  0
 22 17  1  0
 25 17  1  0
  1 28  1  0
  1 29  1  0
  1 30  1  0
  3 31  1  0
  3 32  1  0
  4 33  1  0
  4 34  1  0
  5 35  1  0
  5 36  1  0
  7 37  1  0
  8 38  1  0
 10 39  1  0
 10 40  1  0
 12 41  1  0
 12 42  1  0
 12 43  1  0
 13 44  1  0
 13 45  1  0
 18 46  1  0
 19 47  1  0
 20 48  1  0
 20 49  1  0
 21 50  1  0
 22 51  1  0
 22 52  1  0
 24 53  1  0
 24 54  1  0
 27 55  1  0
M  END
>  <Name>  (106) 
Angustifolin

>  <PubChem ID>  (106) 
21575185

>  <CDB ID>  (106) 
CDB0106

>  <Smiles>  (106) 
CC12CCCC3(C1C(OC2)OC)COC(=O)C45C3C(CC(C4)C(=C)C5=O)O

>  <Chemical class>  (106) 
7-Oxygenated Coumarins

>  <Natural source>  (106) 
Ruta angustifolia

>  <Molecular Formula>  (106) 
C21H28O6

>  <InChI-Key>  (106) 
OCIBRRBOOBNKJY-UHFFFAOYSA-N

>  <Total Molweight>  (106) 
376.447

>  <cLogP>  (106) 
1.4073

>  <cLogS>  (106) 
-3.067

>  <H-Acceptors>  (106) 
6

>  <H-Donors>  (106) 
1

>  <Rotatable Bonds>  (106) 
1

>  <Polar Surface Area>  (106) 
82.06

$$$$
CDB0107
     RDKit          3D

 37 37  0  0  0  0  0  0  0  0999 V2000
   -2.5482    0.8076   -0.2353 C   0  0  0  0  0  0  0  0  0  0  0  0
   -2.1674   -0.3745    0.6692 C   0  0  0  0  0  0  0  0  0  0  0  0
   -2.6613   -0.0671    2.0923 C   0  0  0  0  0  0  0  0  0  0  0  0
   -2.8550   -1.6502    0.2088 C   0  0  0  0  0  0  0  0  0  0  0  0
   -2.3388   -2.8882    0.1933 C   0  0  0  0  0  0  0  0  0  0  0  0
   -0.7525   -0.5725    0.8014 O   0  0  0  0  0  0  0  0  0  0  0  0
    0.0177   -0.5404   -0.4076 C   0  0  0  0  0  0  0  0  0  0  0  0
    1.2980   -1.3798   -0.1368 C   0  0  0  0  0  0  0  0  0  0  0  0
    2.4464   -0.9087   -1.0243 C   0  0  0  0  0  0  0  0  0  0  0  0
    2.7284    0.5878   -0.7607 C   0  0  0  0  0  0  0  0  0  0  0  0
    1.4855    1.3381   -0.2305 C   0  0  0  0  0  0  0  0  0  0  0  0
    0.2959    0.8004   -0.8123 O   0  0  0  0  0  0  0  0  0  0  0  0
    1.5776    2.8304   -0.5792 C   0  0  0  0  0  0  0  0  0  0  0  0
    0.5688    3.5642    0.1199 O   0  0  0  0  0  0  0  0  0  0  0  0
    3.7880    0.7199    0.2008 O   0  0  0  0  0  0  0  0  0  0  0  0
    2.1350   -1.1313   -2.4022 O   0  0  0  0  0  0  0  0  0  0  0  0
    1.7122   -1.2658    1.2424 O   0  0  0  0  0  0  0  0  0  0  0  0
   -3.6243    1.0134   -0.1951 H   0  0  0  0  0  0  0  0  0  0  0  0
   -2.2968    0.6168   -1.2844 H   0  0  0  0  0  0  0  0  0  0  0  0
   -2.0194    1.7185    0.0665 H   0  0  0  0  0  0  0  0  0  0  0  0
   -2.3981   -0.8752    2.7861 H   0  0  0  0  0  0  0  0  0  0  0  0
   -2.1792    0.8381    2.4807 H   0  0  0  0  0  0  0  0  0  0  0  0
   -3.7467    0.0784    2.1305 H   0  0  0  0  0  0  0  0  0  0  0  0
   -3.8887   -1.5330   -0.1158 H   0  0  0  0  0  0  0  0  0  0  0  0
   -1.3324   -3.0965    0.5398 H   0  0  0  0  0  0  0  0  0  0  0  0
   -2.9338   -3.7313   -0.1448 H   0  0  0  0  0  0  0  0  0  0  0  0
   -0.5310   -1.0096   -1.2321 H   0  0  0  0  0  0  0  0  0  0  0  0
    1.0691   -2.4376   -0.3063 H   0  0  0  0  0  0  0  0  0  0  0  0
    3.3528   -1.4828   -0.7948 H   0  0  0  0  0  0  0  0  0  0  0  0
    3.0816    1.0497   -1.6902 H   0  0  0  0  0  0  0  0  0  0  0  0
    1.4046    1.2649    0.8621 H   0  0  0  0  0  0  0  0  0  0  0  0
    1.4189    2.9873   -1.6514 H   0  0  0  0  0  0  0  0  0  0  0  0
    2.5484    3.2442   -0.2891 H   0  0  0  0  0  0  0  0  0  0  0  0
    0.6010    4.4750   -0.2177 H   0  0  0  0  0  0  0  0  0  0  0  0
    3.5185    0.1963    0.9833 H   0  0  0  0  0  0  0  0  0  0  0  0
    2.3517   -2.0591   -2.6031 H   0  0  0  0  0  0  0  0  0  0  0  0
    0.8736   -1.1275    1.7367 H   0  0  0  0  0  0  0  0  0  0  0  0
  1  2  1  0
  2  3  1  0
  2  4  1  0
  4  5  2  0
  2  6  1  0
  6  7  1  0
  7  8  1  0
  8  9  1  0
  9 10  1  0
 10 11  1  0
 11 12  1  0
 11 13  1  0
 13 14  1  0
 10 15  1  0
  9 16  1  0
  8 17  1  0
 12  7  1  0
  1 18  1  0
  1 19  1  0
  1 20  1  0
  3 21  1  0
  3 22  1  0
  3 23  1  0
  4 24  1  0
  5 25  1  0
  5 26  1  0
  7 27  1  0
  8 28  1  0
  9 29  1  0
 10 30  1  0
 11 31  1  0
 13 32  1  0
 13 33  1  0
 14 34  1  0
 15 35  1  0
 16 36  1  0
 17 37  1  0
M  END
>  <Name>  (107) 
Crenulatin

>  <PubChem ID>  (107) 
5316128

>  <CDB ID>  (107) 
CDB0107

>  <Smiles>  (107) 
CC(C)(C=C)OC1C(C(C(C(O1)CO)O)O)O

>  <Chemical class>  (107) 
7-Oxygenated Coumarins

>  <Natural source>  (107) 
Angelica pubescens

>  <Molecular Formula>  (107) 
C11H20O6

>  <InChI-Key>  (107) 
ZEGGZNOPAPRAIG-UHFFFAOYSA-N

>  <Total Molweight>  (107) 
248.274

>  <cLogP>  (107) 
-0.7778

>  <cLogS>  (107) 
-0.873

>  <H-Acceptors>  (107) 
6

>  <H-Donors>  (107) 
4

>  <Rotatable Bonds>  (107) 
4

>  <Polar Surface Area>  (107) 
99.38

$$$$
CDB0108
     RDKit          3D

 24 25  0  0  0  0  0  0  0  0999 V2000
   -2.7733   -2.2525   -0.5357 C   0  0  0  0  0  0  0  0  0  0  0  0
   -2.5636   -0.9024   -0.1420 O   0  0  0  0  0  0  0  0  0  0  0  0
   -1.2782   -0.4336   -0.1166 C   0  0  0  0  0  0  0  0  0  0  0  0
   -1.0991    0.9510    0.0760 C   0  0  0  0  0  0  0  0  0  0  0  0
    0.1968    1.4993    0.1523 C   0  0  0  0  0  0  0  0  0  0  0  0
    1.3156    0.6760    0.0392 C   0  0  0  0  0  0  0  0  0  0  0  0
    2.6709    1.1959    0.1114 C   0  0  0  0  0  0  0  0  0  0  0  0
    3.7044    0.3561   -0.0033 C   0  0  0  0  0  0  0  0  0  0  0  0
    3.5283   -1.0933   -0.2025 C   0  0  0  0  0  0  0  0  0  0  0  0
    4.4987   -1.8345   -0.3035 O   0  0  0  0  0  0  0  0  0  0  0  0
    2.2232   -1.5634   -0.2681 O   0  0  0  0  0  0  0  0  0  0  0  0
    1.1242   -0.6884   -0.1501 C   0  0  0  0  0  0  0  0  0  0  0  0
   -0.1497   -1.2530   -0.2274 C   0  0  0  0  0  0  0  0  0  0  0  0
   -2.2693    1.8626    0.1699 C   0  0  0  0  0  0  0  0  0  0  0  0
   -3.3551    1.7473   -0.3629 O   0  0  0  0  0  0  0  0  0  0  0  0
   -2.0026    2.9211    0.9619 O   0  0  0  0  0  0  0  0  0  0  0  0
   -3.8529   -2.4161   -0.6062 H   0  0  0  0  0  0  0  0  0  0  0  0
   -2.3407   -2.4516   -1.5218 H   0  0  0  0  0  0  0  0  0  0  0  0
   -2.3804   -2.9441    0.2164 H   0  0  0  0  0  0  0  0  0  0  0  0
    0.3221    2.5708    0.2934 H   0  0  0  0  0  0  0  0  0  0  0  0
    2.8256    2.2594    0.2586 H   0  0  0  0  0  0  0  0  0  0  0  0
    4.7298    0.7024    0.0455 H   0  0  0  0  0  0  0  0  0  0  0  0
   -0.2262   -2.3266   -0.3618 H   0  0  0  0  0  0  0  0  0  0  0  0
   -2.8484    3.4177    0.9625 H   0  0  0  0  0  0  0  0  0  0  0  0
  1  2  1  0
  2  3  1  0
  3  4  1  0
  4  5  2  0
  5  6  1  0
  6  7  1  0
  7  8  2  0
  8  9  1  0
  9 10  2  0
  9 11  1  0
 11 12  1  0
 12 13  1  0
  4 14  1  0
 14 15  2  0
 14 16  1  0
 13  3  2  0
 12  6  2  0
  1 17  1  0
  1 18  1  0
  1 19  1  0
  5 20  1  0
  7 21  1  0
  8 22  1  0
 13 23  1  0
 16 24  1  0
M  END
>  <Name>  (108) 
Buntansin

>  <PubChem ID>  (108) 
15627934

>  <CDB ID>  (108) 
CDB0108

>  <Smiles>  (108) 
COC1=C(C=C2C=CC(=O)OC2=C1)C(=O)O

>  <Chemical class>  (108) 
7-Oxygenated Coumarins

>  <Natural source>  (108) 
Citrus grandis

>  <Molecular Formula>  (108) 
C11H8O5

>  <InChI-Key>  (108) 
GQYZDAIERJIQDI-UHFFFAOYSA-N

>  <Total Molweight>  (108) 
220.18

>  <cLogP>  (108) 
0.9125

>  <cLogS>  (108) 
-2.401

>  <H-Acceptors>  (108) 
5

>  <H-Donors>  (108) 
1

>  <Rotatable Bonds>  (108) 
2

>  <Polar Surface Area>  (108) 
72.83

$$$$
CDB0109
     RDKit          3D

 24 25  0  0  0  0  0  0  0  0999 V2000
    4.1777    0.8089   -0.7326 C   0  0  0  0  0  0  0  0  0  0  0  0
    2.7610    0.6304   -0.6744 O   0  0  0  0  0  0  0  0  0  0  0  0
    2.3338   -0.0369    0.4237 C   0  0  0  0  0  0  0  0  0  0  0  0
    3.0395   -0.4746    1.3222 O   0  0  0  0  0  0  0  0  0  0  0  0
    0.8564   -0.1924    0.4306 C   0  0  0  0  0  0  0  0  0  0  0  0
    0.2395   -0.8635    1.5011 C   0  0  0  0  0  0  0  0  0  0  0  0
   -1.1433   -1.0257    1.5367 C   0  0  0  0  0  0  0  0  0  0  0  0
   -1.9097   -0.5128    0.4949 C   0  0  0  0  0  0  0  0  0  0  0  0
   -1.3284    0.1571   -0.5800 C   0  0  0  0  0  0  0  0  0  0  0  0
    0.0604    0.3175   -0.6115 C   0  0  0  0  0  0  0  0  0  0  0  0
   -2.1869    0.6687   -1.6362 C   0  0  0  0  0  0  0  0  0  0  0  0
   -3.5087    0.4873   -1.5557 C   0  0  0  0  0  0  0  0  0  0  0  0
   -4.1453   -0.2178   -0.4289 C   0  0  0  0  0  0  0  0  0  0  0  0
   -5.3612   -0.3644   -0.3905 O   0  0  0  0  0  0  0  0  0  0  0  0
   -3.3045   -0.6966    0.5665 O   0  0  0  0  0  0  0  0  0  0  0  0
    0.9297   -1.3935    2.5594 O   0  0  0  0  0  0  0  0  0  0  0  0
    4.5245    1.4001    0.1207 H   0  0  0  0  0  0  0  0  0  0  0  0
    4.4127    1.3543   -1.6508 H   0  0  0  0  0  0  0  0  0  0  0  0
    4.6847   -0.1605   -0.7654 H   0  0  0  0  0  0  0  0  0  0  0  0
   -1.6142   -1.5450    2.3664 H   0  0  0  0  0  0  0  0  0  0  0  0
    0.5197    0.8395   -1.4478 H   0  0  0  0  0  0  0  0  0  0  0  0
   -1.7439    1.1915   -2.4769 H   0  0  0  0  0  0  0  0  0  0  0  0
   -4.1831    0.8525   -2.3209 H   0  0  0  0  0  0  0  0  0  0  0  0
    1.8898   -1.2242    2.4347 H   0  0  0  0  0  0  0  0  0  0  0  0
  1  2  1  0
  2  3  1  0
  3  4  2  0
  3  5  1  0
  5  6  1  0
  6  7  2  0
  7  8  1  0
  8  9  2  0
  9 10  1  0
  9 11  1  0
 11 12  2  0
 12 13  1  0
 13 14  2  0
 13 15  1  0
  6 16  1  0
 10  5  2  0
 15  8  1  0
  1 17  1  0
  1 18  1  0
  1 19  1  0
  7 20  1  0
 10 21  1  0
 11 22  1  0
 12 23  1  0
 16 24  1  0
M  END
>  <Name>  (109) 
Peuruthenicin

>  <PubChem ID>  (109) 
5748646

>  <CDB ID>  (109) 
CDB0109

>  <Smiles>  (109) 
COC(=O)C1=C(C=C2C(=C1)C=CC(=O)O2)O

>  <Chemical class>  (109) 
7-Oxygenated Coumarins

>  <Natural source>  (109) 
Peucedanum ruthenicum

>  <Molecular Formula>  (109) 
C11H8O5

>  <InChI-Key>  (109) 
LEIVLXXHPABGQA-UHFFFAOYSA-N

>  <Total Molweight>  (109) 
220.18

>  <cLogP>  (109) 
1.0647

>  <cLogS>  (109) 
-2.215

>  <H-Acceptors>  (109) 
5

>  <H-Donors>  (109) 
1

>  <Rotatable Bonds>  (109) 
2

>  <Polar Surface Area>  (109) 
72.83

$$$$
CDB0110
     RDKit          3D

 33 34  0  0  0  0  0  0  0  0999 V2000
    0.4399    3.4209    0.0380 C   0  0  0  0  0  0  0  0  0  0  0  0
    0.7396    2.0379    0.1918 O   0  0  0  0  0  0  0  0  0  0  0  0
   -0.3188    1.1658    0.2272 C   0  0  0  0  0  0  0  0  0  0  0  0
    0.0001   -0.1747    0.5418 C   0  0  0  0  0  0  0  0  0  0  0  0
    1.4416   -0.5744    0.8192 C   0  0  1  0  0  0  0  0  0  0  0  0
    1.4724   -1.7868    1.5829 O   0  0  0  0  0  0  0  0  0  0  0  0
    2.2096   -0.7826   -0.4871 C   0  0  0  0  0  0  0  0  0  0  0  0
    3.6901   -0.9518   -0.2219 C   0  0  0  0  0  0  0  0  0  0  0  0
    4.6073   -0.8122   -1.4078 C   0  0  0  0  0  0  0  0  0  0  0  0
    4.1272   -1.2358    0.8946 O   0  0  0  0  0  0  0  0  0  0  0  0
   -1.0296   -1.1386    0.5727 C   0  0  0  0  0  0  0  0  0  0  0  0
   -2.3514   -0.7818    0.3090 C   0  0  0  0  0  0  0  0  0  0  0  0
   -3.4354   -1.7491    0.3424 C   0  0  0  0  0  0  0  0  0  0  0  0
   -4.6824   -1.3486    0.0771 C   0  0  0  0  0  0  0  0  0  0  0  0
   -5.0094    0.0495   -0.2538 C   0  0  0  0  0  0  0  0  0  0  0  0
   -6.1636    0.3816   -0.4979 O   0  0  0  0  0  0  0  0  0  0  0  0
   -3.9562    0.9540   -0.2757 O   0  0  0  0  0  0  0  0  0  0  0  0
   -2.6369    0.5437    0.0050 C   0  0  0  0  0  0  0  0  0  0  0  0
   -1.6432    1.5202   -0.0418 C   0  0  0  0  0  0  0  0  0  0  0  0
   -0.2197    3.7760    0.8367 H   0  0  0  0  0  0  0  0  0  0  0  0
    1.3803    3.9755    0.1117 H   0  0  0  0  0  0  0  0  0  0  0  0
    0.0125    3.6213   -0.9498 H   0  0  0  0  0  0  0  0  0  0  0  0
    1.9119    0.1936    1.4457 H   0  0  0  0  0  0  0  0  0  0  0  0
    2.4106   -1.9043    1.8410 H   0  0  0  0  0  0  0  0  0  0  0  0
    2.0858    0.0774   -1.1544 H   0  0  0  0  0  0  0  0  0  0  0  0
    1.8641   -1.6836   -1.0072 H   0  0  0  0  0  0  0  0  0  0  0  0
    4.4994    0.1858   -1.8397 H   0  0  0  0  0  0  0  0  0  0  0  0
    4.3620   -1.5743   -2.1514 H   0  0  0  0  0  0  0  0  0  0  0  0
    5.6448   -0.9468   -1.0895 H   0  0  0  0  0  0  0  0  0  0  0  0
   -0.7861   -2.1722    0.8139 H   0  0  0  0  0  0  0  0  0  0  0  0
   -3.2150   -2.7827    0.5863 H   0  0  0  0  0  0  0  0  0  0  0  0
   -5.5186   -2.0368    0.0932 H   0  0  0  0  0  0  0  0  0  0  0  0
   -1.9332    2.5339   -0.2937 H   0  0  0  0  0  0  0  0  0  0  0  0
  1  2  1  0
  2  3  1  0
  3  4  2  0
  4  5  1  0
  5  6  1  0
  5  7  1  0
  7  8  1  0
  8  9  1  0
  8 10  2  0
  4 11  1  0
 11 12  2  0
 12 13  1  0
 13 14  2  0
 14 15  1  0
 15 16  2  0
 15 17  1  0
 17 18  1  0
 18 19  2  0
 19  3  1  0
 18 12  1  0
  1 20  1  0
  1 21  1  0
  1 22  1  0
  5 23  1  1
  6 24  1  0
  7 25  1  0
  7 26  1  0
  9 27  1  0
  9 28  1  0
  9 29  1  0
 11 30  1  0
 13 31  1  0
 14 32  1  0
 19 33  1  0
M  END
>  <Name>  (110) 
Buntansin B

>  <PubChem ID>  (110) 
101664569

>  <CDB ID>  (110) 
CDB0110

>  <Smiles>  (110) 
COC1=C([C@@H](O)CC(C)=O)C=C2C=CC(=O)OC2=C1

>  <Chemical class>  (110) 
7-Oxygenated Coumarins

>  <Natural source>  (110) 
Citrus grandis

>  <Molecular Formula>  (110) 
C14H14O5

>  <InChI-Key>  (110) 
IKTQFLXJWYKGDA-NSHDSACASA-N

>  <Total Molweight>  (110) 
262.26

>  <cLogP>  (110) 
0.9726

>  <cLogS>  (110) 
-2.535

>  <H-Acceptors>  (110) 
5

>  <H-Donors>  (110) 
1

>  <Rotatable Bonds>  (110) 
4

>  <Polar Surface Area>  (110) 
72.83

$$$$
CDB0111
     RDKit          3D

 31 32  0  0  0  0  0  0  0  0999 V2000
   -3.8357   -0.8075    0.1392 C   0  0  0  0  0  0  0  0  0  0  0  0
   -3.1752    0.5253   -0.0814 C   0  0  0  0  0  0  0  0  0  0  0  0
   -2.0107    0.7193   -0.7323 C   0  0  0  0  0  0  0  0  0  0  0  0
   -1.1314   -0.3076   -1.3971 C   0  0  0  0  0  0  0  0  0  0  0  0
    0.1980   -0.4689   -0.6929 C   0  0  0  0  0  0  0  0  0  0  0  0
    0.4122   -1.4797    0.2556 C   0  0  0  0  0  0  0  0  0  0  0  0
    1.6337   -1.6026    0.9142 C   0  0  0  0  0  0  0  0  0  0  0  0
    2.6482   -0.6965    0.6179 C   0  0  0  0  0  0  0  0  0  0  0  0
    2.4727    0.3229   -0.3138 C   0  0  0  0  0  0  0  0  0  0  0  0
    1.2434    0.4352   -0.9674 C   0  0  0  0  0  0  0  0  0  0  0  0
    3.5723    1.2373   -0.5737 C   0  0  0  0  0  0  0  0  0  0  0  0
    4.7260    1.0816    0.0827 C   0  0  0  0  0  0  0  0  0  0  0  0
    4.9353    0.0093    1.0716 C   0  0  0  0  0  0  0  0  0  0  0  0
    6.0078   -0.1036    1.6539 O   0  0  0  0  0  0  0  0  0  0  0  0
    3.8702   -0.8504    1.3028 O   0  0  0  0  0  0  0  0  0  0  0  0
   -0.5977   -2.3588    0.5278 O   0  0  0  0  0  0  0  0  0  0  0  0
   -3.9244    1.6898    0.5126 C   0  0  0  0  0  0  0  0  0  0  0  0
   -4.8268   -0.8163   -0.3266 H   0  0  0  0  0  0  0  0  0  0  0  0
   -3.2747   -1.6491   -0.2706 H   0  0  0  0  0  0  0  0  0  0  0  0
   -3.9582   -0.9920    1.2119 H   0  0  0  0  0  0  0  0  0  0  0  0
   -1.6361    1.7391   -0.8165 H   0  0  0  0  0  0  0  0  0  0  0  0
   -0.9459    0.0199   -2.4290 H   0  0  0  0  0  0  0  0  0  0  0  0
   -1.6226   -1.2784   -1.5080 H   0  0  0  0  0  0  0  0  0  0  0  0
    1.8102   -2.3831    1.6462 H   0  0  0  0  0  0  0  0  0  0  0  0
    1.0845    1.2288   -1.6948 H   0  0  0  0  0  0  0  0  0  0  0  0
    3.4403    2.0339   -1.2974 H   0  0  0  0  0  0  0  0  0  0  0  0
    5.5697    1.7408   -0.0813 H   0  0  0  0  0  0  0  0  0  0  0  0
   -0.3155   -2.9555    1.2404 H   0  0  0  0  0  0  0  0  0  0  0  0
   -4.0277    1.5618    1.5951 H   0  0  0  0  0  0  0  0  0  0  0  0
   -4.9247    1.7603    0.0729 H   0  0  0  0  0  0  0  0  0  0  0  0
   -3.4170    2.6444    0.3380 H   0  0  0  0  0  0  0  0  0  0  0  0
  1  2  1  0
  2  3  2  3
  3  4  1  0
  4  5  1  0
  5  6  2  0
  6  7  1  0
  7  8  2  0
  8  9  1  0
  9 10  2  0
  9 11  1  0
 11 12  2  0
 12 13  1  0
 13 14  2  0
 13 15  1  0
  6 16  1  0
  2 17  1  0
 10  5  1  0
 15  8  1  0
  1 18  1  0
  1 19  1  0
  1 20  1  0
  3 21  1  0
  4 22  1  0
  4 23  1  0
  7 24  1  0
 10 25  1  0
 11 26  1  0
 12 27  1  0
 16 28  1  0
 17 29  1  0
 17 30  1  0
 17 31  1  0
M  END
>  <Name>  (111) 
Demethylsuberosin

>  <PubChem ID>  (111) 
5316525

>  <CDB ID>  (111) 
CDB0111

>  <Smiles>  (111) 
CC(=CCC1=C(C=C2C(=C1)C=CC(=O)O2)O)C

>  <Chemical class>  (111) 
7-Oxygenated Coumarins

>  <Natural source>  (111) 
Chloroxylon swietenia

>  <Molecular Formula>  (111) 
C14H14O3

>  <InChI-Key>  (111) 
FIDUIAPDSKSUGO-UHFFFAOYSA-N

>  <Total Molweight>  (111) 
230.262

>  <cLogP>  (111) 
3.1742

>  <cLogS>  (111) 
-3.013

>  <H-Acceptors>  (111) 
3

>  <H-Donors>  (111) 
1

>  <Rotatable Bonds>  (111) 
2

>  <Polar Surface Area>  (111) 
46.53

$$$$
CDB0112
     RDKit          3D

 34 35  0  0  0  0  0  0  0  0999 V2000
    3.6973   -1.0442    0.3352 C   0  0  0  0  0  0  0  0  0  0  0  0
    3.2202    0.3782    0.2334 C   0  0  0  0  0  0  0  0  0  0  0  0
    2.1637    0.7968   -0.4919 C   0  0  0  0  0  0  0  0  0  0  0  0
    1.2459   -0.0212   -1.3623 C   0  0  0  0  0  0  0  0  0  0  0  0
   -0.1740   -0.0501   -0.8309 C   0  0  0  0  0  0  0  0  0  0  0  0
   -0.6075   -1.0574    0.0574 C   0  0  0  0  0  0  0  0  0  0  0  0
   -1.9189   -1.0343    0.5383 C   0  0  0  0  0  0  0  0  0  0  0  0
   -2.7777   -0.0095    0.1427 C   0  0  0  0  0  0  0  0  0  0  0  0
   -2.3705    0.9991   -0.7231 C   0  0  0  0  0  0  0  0  0  0  0  0
   -1.0639    0.9772   -1.2084 C   0  0  0  0  0  0  0  0  0  0  0  0
   -3.3162    2.0395   -1.0911 C   0  0  0  0  0  0  0  0  0  0  0  0
   -4.5562    2.0062   -0.5938 C   0  0  0  0  0  0  0  0  0  0  0  0
   -5.0122    0.9467    0.3232 C   0  0  0  0  0  0  0  0  0  0  0  0
   -6.1577    0.9475    0.7592 O   0  0  0  0  0  0  0  0  0  0  0  0
   -4.0894   -0.0342    0.6595 O   0  0  0  0  0  0  0  0  0  0  0  0
    0.3169   -2.0169    0.3761 O   0  0  0  0  0  0  0  0  0  0  0  0
   -0.0279   -2.9471    1.3945 C   0  0  0  0  0  0  0  0  0  0  0  0
    4.0276    1.3575    1.0454 C   0  0  0  0  0  0  0  0  0  0  0  0
    4.7342   -1.1173   -0.0097 H   0  0  0  0  0  0  0  0  0  0  0  0
    3.1088   -1.7488   -0.2547 H   0  0  0  0  0  0  0  0  0  0  0  0
    3.6569   -1.3792    1.3771 H   0  0  0  0  0  0  0  0  0  0  0  0
    1.9201    1.8589   -0.4740 H   0  0  0  0  0  0  0  0  0  0  0  0
    1.6066   -1.0403   -1.5269 H   0  0  0  0  0  0  0  0  0  0  0  0
    1.2409    0.4273   -2.3649 H   0  0  0  0  0  0  0  0  0  0  0  0
   -2.3011   -1.7924    1.2122 H   0  0  0  0  0  0  0  0  0  0  0  0
   -0.7212    1.7591   -1.8832 H   0  0  0  0  0  0  0  0  0  0  0  0
   -3.0016    2.8288   -1.7648 H   0  0  0  0  0  0  0  0  0  0  0  0
   -5.2918    2.7614   -0.8423 H   0  0  0  0  0  0  0  0  0  0  0  0
   -0.2739   -2.4377    2.3321 H   0  0  0  0  0  0  0  0  0  0  0  0
    0.8464   -3.5788    1.5789 H   0  0  0  0  0  0  0  0  0  0  0  0
   -0.8459   -3.5983    1.0699 H   0  0  0  0  0  0  0  0  0  0  0  0
    3.9983    1.0857    2.1057 H   0  0  0  0  0  0  0  0  0  0  0  0
    5.0710    1.3552    0.7136 H   0  0  0  0  0  0  0  0  0  0  0  0
    3.6529    2.3826    0.9551 H   0  0  0  0  0  0  0  0  0  0  0  0
  1  2  1  0
  2  3  2  3
  3  4  1  0
  4  5  1  0
  5  6  2  0
  6  7  1  0
  7  8  2  0
  8  9  1  0
  9 10  2  0
  9 11  1  0
 11 12  2  0
 12 13  1  0
 13 14  2  0
 13 15  1  0
  6 16  1  0
 16 17  1  0
  2 18  1  0
 10  5  1  0
 15  8  1  0
  1 19  1  0
  1 20  1  0
  1 21  1  0
  3 22  1  0
  4 23  1  0
  4 24  1  0
  7 25  1  0
 10 26  1  0
 11 27  1  0
 12 28  1  0
 17 29  1  0
 17 30  1  0
 17 31  1  0
 18 32  1  0
 18 33  1  0
 18 34  1  0
M  END
>  <Name>  (112) 
Suberosin

>  <PubChem ID>  (112) 
68486

>  <CDB ID>  (112) 
CDB0112

>  <Smiles>  (112) 
CC(=CCC1=C(C=C2C(=C1)C=CC(=O)O2)OC)C

>  <Chemical class>  (112) 
7-Oxygenated Coumarins

>  <Natural source>  (112) 
Zanthoxylum suberosum

>  <Molecular Formula>  (112) 
C15H16O3

>  <InChI-Key>  (112) 
RSZDAYHEZSRVHS-UHFFFAOYSA-N

>  <Total Molweight>  (112) 
244.289

>  <cLogP>  (112) 
3.4499

>  <cLogS>  (112) 
-3.327

>  <H-Acceptors>  (112) 
3

>  <H-Donors>  (112) 
0

>  <Rotatable Bonds>  (112) 
3

>  <Polar Surface Area>  (112) 
35.53

$$$$
CDB0113
     RDKit          3D

 32 33  0  0  0  0  0  0  0  0999 V2000
    4.3762    0.4989   -0.9465 C   0  0  0  0  0  0  0  0  0  0  0  0
    3.7938   -0.5239   -0.0078 C   0  0  0  0  0  0  0  0  0  0  0  0
    4.5931   -1.3768    0.6547 C   0  0  0  0  0  0  0  0  0  0  0  0
    2.3504   -0.5859    0.1821 C   0  0  0  0  0  0  0  0  0  0  0  0
    1.4435    0.2080   -0.4122 C   0  0  0  0  0  0  0  0  0  0  0  0
   -0.0121    0.1151   -0.1791 C   0  0  0  0  0  0  0  0  0  0  0  0
   -0.7921    1.2869   -0.0359 C   0  0  0  0  0  0  0  0  0  0  0  0
   -2.1726    1.1773    0.1549 C   0  0  0  0  0  0  0  0  0  0  0  0
   -2.7622   -0.0855    0.1904 C   0  0  0  0  0  0  0  0  0  0  0  0
   -2.0183   -1.2497    0.0351 C   0  0  0  0  0  0  0  0  0  0  0  0
   -0.6404   -1.1453   -0.1560 C   0  0  0  0  0  0  0  0  0  0  0  0
   -2.6997   -2.5332    0.0702 C   0  0  0  0  0  0  0  0  0  0  0  0
   -4.0228   -2.5706    0.2548 C   0  0  0  0  0  0  0  0  0  0  0  0
   -4.8322   -1.3513    0.4259 C   0  0  0  0  0  0  0  0  0  0  0  0
   -6.0438   -1.4229    0.5951 O   0  0  0  0  0  0  0  0  0  0  0  0
   -4.1576   -0.1385    0.3848 O   0  0  0  0  0  0  0  0  0  0  0  0
   -0.1141    2.4799   -0.0944 O   0  0  0  0  0  0  0  0  0  0  0  0
   -0.8600    3.6730    0.1093 C   0  0  0  0  0  0  0  0  0  0  0  0
    3.9961    0.3534   -1.9634 H   0  0  0  0  0  0  0  0  0  0  0  0
    4.1286    1.5137   -0.6169 H   0  0  0  0  0  0  0  0  0  0  0  0
    5.4688    0.4325   -0.9969 H   0  0  0  0  0  0  0  0  0  0  0  0
    5.6718   -1.3511    0.5323 H   0  0  0  0  0  0  0  0  0  0  0  0
    4.2027   -2.1233    1.3395 H   0  0  0  0  0  0  0  0  0  0  0  0
    2.0031   -1.3423    0.8850 H   0  0  0  0  0  0  0  0  0  0  0  0
    1.7443    1.0014   -1.0912 H   0  0  0  0  0  0  0  0  0  0  0  0
   -2.8119    2.0445    0.2743 H   0  0  0  0  0  0  0  0  0  0  0  0
   -0.0478   -2.0461   -0.3003 H   0  0  0  0  0  0  0  0  0  0  0  0
   -2.1237   -3.4437   -0.0541 H   0  0  0  0  0  0  0  0  0  0  0  0
   -4.5687   -3.5057    0.2877 H   0  0  0  0  0  0  0  0  0  0  0  0
   -1.3226    3.6860    1.1016 H   0  0  0  0  0  0  0  0  0  0  0  0
   -1.6069    3.8100   -0.6795 H   0  0  0  0  0  0  0  0  0  0  0  0
   -0.1632    4.5152    0.0565 H   0  0  0  0  0  0  0  0  0  0  0  0
  1  2  1  0
  2  3  2  0
  2  4  1  0
  4  5  2  3
  5  6  1  0
  6  7  2  0
  7  8  1  0
  8  9  2  0
  9 10  1  0
 10 11  2  0
 10 12  1  0
 12 13  2  0
 13 14  1  0
 14 15  2  0
 14 16  1  0
  7 17  1  0
 17 18  1  0
 11  6  1  0
 16  9  1  0
  1 19  1  0
  1 20  1  0
  1 21  1  0
  3 22  1  0
  3 23  1  0
  4 24  1  0
  5 25  1  0
  8 26  1  0
 11 27  1  0
 12 28  1  0
 13 29  1  0
 18 30  1  0
 18 31  1  0
 18 32  1  0
M  END
>  <Name>  (113) 
Citrubuntin

>  <PubChem ID>  (113) 
14077807

>  <CDB ID>  (113) 
CDB0113

>  <Smiles>  (113) 
CC(=C)C=CC1=C(C=C2C(=C1)C=CC(=O)O2)OC

>  <Chemical class>  (113) 
7-Oxygenated Coumarins

>  <Natural source>  (113) 
Citrus grandis

>  <Molecular Formula>  (113) 
C15H14O3

>  <InChI-Key>  (113) 
GHVNFLHFOPJJNP-UHFFFAOYSA-N

>  <Total Molweight>  (113) 
242.273

>  <cLogP>  (113) 
3.3933

>  <cLogS>  (113) 
-3.629

>  <H-Acceptors>  (113) 
3

>  <H-Donors>  (113) 
0

>  <Rotatable Bonds>  (113) 
3

>  <Polar Surface Area>  (113) 
35.53

$$$$
CDB0114
     RDKit          3D

 34 35  0  0  0  0  0  0  0  0999 V2000
   -4.0656    0.5709   -1.1026 C   0  0  0  0  0  0  0  0  0  0  0  0
   -3.2143    0.3697    0.1556 C   0  0  0  0  0  0  0  0  0  0  0  0
   -3.8552   -0.6983    1.0435 C   0  0  0  0  0  0  0  0  0  0  0  0
   -1.7671    0.0138   -0.2381 C   0  0  0  0  0  0  0  0  0  0  0  0
   -0.8111   -0.1398    0.9537 C   0  0  0  0  0  0  0  0  0  0  0  0
    0.6101   -0.3860    0.4962 C   0  0  0  0  0  0  0  0  0  0  0  0
    1.0670   -1.6362    0.0505 C   0  0  0  0  0  0  0  0  0  0  0  0
    2.3756   -1.8074   -0.3948 C   0  0  0  0  0  0  0  0  0  0  0  0
    3.2402   -0.7188   -0.3909 C   0  0  0  0  0  0  0  0  0  0  0  0
    2.8268    0.5362    0.0445 C   0  0  0  0  0  0  0  0  0  0  0  0
    1.5100    0.6993    0.4845 C   0  0  0  0  0  0  0  0  0  0  0  0
    3.7764    1.6366    0.0250 C   0  0  0  0  0  0  0  0  0  0  0  0
    5.0219    1.4216   -0.4095 C   0  0  0  0  0  0  0  0  0  0  0  0
    5.4806    0.1011   -0.8765 C   0  0  0  0  0  0  0  0  0  0  0  0
    6.6308   -0.0562   -1.2698 O   0  0  0  0  0  0  0  0  0  0  0  0
    4.5554   -0.9329   -0.8470 O   0  0  0  0  0  0  0  0  0  0  0  0
    0.2797   -2.7514    0.0162 O   0  0  0  0  0  0  0  0  0  0  0  0
   -3.2096    1.5929    0.8934 O   0  0  0  0  0  0  0  0  0  0  0  0
   -5.0804    0.8913   -0.8403 H   0  0  0  0  0  0  0  0  0  0  0  0
   -3.6477    1.3613   -1.7366 H   0  0  0  0  0  0  0  0  0  0  0  0
   -4.1326   -0.3476   -1.6948 H   0  0  0  0  0  0  0  0  0  0  0  0
   -4.9008   -0.4472    1.2574 H   0  0  0  0  0  0  0  0  0  0  0  0
   -3.3601   -0.7617    2.0182 H   0  0  0  0  0  0  0  0  0  0  0  0
   -3.8290   -1.6849    0.5698 H   0  0  0  0  0  0  0  0  0  0  0  0
   -1.3743    0.8092   -0.8868 H   0  0  0  0  0  0  0  0  0  0  0  0
   -1.7662   -0.9053   -0.8379 H   0  0  0  0  0  0  0  0  0  0  0  0
   -0.8400    0.7630    1.5766 H   0  0  0  0  0  0  0  0  0  0  0  0
   -1.1214   -0.9575    1.6131 H   0  0  0  0  0  0  0  0  0  0  0  0
    2.7154   -2.7795   -0.7389 H   0  0  0  0  0  0  0  0  0  0  0  0
    1.1732    1.6783    0.8211 H   0  0  0  0  0  0  0  0  0  0  0  0
    3.4614    2.6168    0.3647 H   0  0  0  0  0  0  0  0  0  0  0  0
    5.7610    2.2128   -0.4399 H   0  0  0  0  0  0  0  0  0  0  0  0
   -0.5654   -2.5733    0.4549 H   0  0  0  0  0  0  0  0  0  0  0  0
   -2.9447    2.3092    0.2904 H   0  0  0  0  0  0  0  0  0  0  0  0
  1  2  1  0
  2  3  1  0
  2  4  1  0
  4  5  1  0
  5  6  1  0
  6  7  2  0
  7  8  1  0
  8  9  2  0
  9 10  1  0
 10 11  2  0
 10 12  1  0
 12 13  2  0
 13 14  1  0
 14 15  2  0
 14 16  1  0
  7 17  1  0
  2 18  1  0
 11  6  1  0
 16  9  1  0
  1 19  1  0
  1 20  1  0
  1 21  1  0
  3 22  1  0
  3 23  1  0
  3 24  1  0
  4 25  1  0
  4 26  1  0
  5 27  1  0
  5 28  1  0
  8 29  1  0
 11 30  1  0
 12 31  1  0
 13 32  1  0
 17 33  1  0
 18 34  1  0
M  END
>  <Name>  (114) 
Swietenol

>  <PubChem ID>  (114) 
71439066

>  <CDB ID>  (114) 
CDB0114

>  <Smiles>  (114) 
CC(C)(CCC1=C(C=C2C(=C1)C=CC(=O)O2)O)O

>  <Chemical class>  (114) 
7-Oxygenated Coumarins

>  <Natural source>  (114) 
Chloroxylon swietenia

>  <Molecular Formula>  (114) 
C14H16O4

>  <InChI-Key>  (114) 
GCEIHMYKBVGJLS-UHFFFAOYSA-N

>  <Total Molweight>  (114) 
248.277

>  <cLogP>  (114) 
2.1788

>  <cLogS>  (114) 
-2.827

>  <H-Acceptors>  (114) 
4

>  <H-Donors>  (114) 
2

>  <Rotatable Bonds>  (114) 
3

>  <Polar Surface Area>  (114) 
66.76

$$$$
CDB0115
     RDKit          3D

 35 36  0  0  0  0  0  0  0  0999 V2000
   -3.7089   -2.2514    0.8677 C   0  0  0  0  0  0  0  0  0  0  0  0
   -3.4242   -0.8299    0.3773 C   0  0  0  0  0  0  0  0  0  0  0  0
   -4.0093   -0.6388   -1.0255 C   0  0  0  0  0  0  0  0  0  0  0  0
   -1.9520   -0.5254    0.5216 C   0  0  0  0  0  0  0  0  0  0  0  0
   -1.0930   -0.1890   -0.4562 C   0  0  0  0  0  0  0  0  0  0  0  0
    0.3341    0.1193   -0.2341 C   0  0  0  0  0  0  0  0  0  0  0  0
    0.9552    1.1796   -0.9360 C   0  0  0  0  0  0  0  0  0  0  0  0
    2.3144    1.4372   -0.7348 C   0  0  0  0  0  0  0  0  0  0  0  0
    3.0407    0.6382    0.1470 C   0  0  0  0  0  0  0  0  0  0  0  0
    2.4555   -0.4184    0.8352 C   0  0  0  0  0  0  0  0  0  0  0  0
    1.0995   -0.6796    0.6372 C   0  0  0  0  0  0  0  0  0  0  0  0
    3.2748   -1.2175    1.7315 C   0  0  0  0  0  0  0  0  0  0  0  0
    4.5695   -0.9208    1.8795 C   0  0  0  0  0  0  0  0  0  0  0  0
    5.2118    0.1955    1.1636 C   0  0  0  0  0  0  0  0  0  0  0  0
    6.4019    0.4398    1.3235 O   0  0  0  0  0  0  0  0  0  0  0  0
    4.4077    0.9412    0.3120 O   0  0  0  0  0  0  0  0  0  0  0  0
    0.1506    1.9019   -1.7835 O   0  0  0  0  0  0  0  0  0  0  0  0
    0.7388    2.9932   -2.4801 C   0  0  0  0  0  0  0  0  0  0  0  0
   -4.1073    0.0669    1.2554 O   0  0  0  0  0  0  0  0  0  0  0  0
   -3.2106   -3.0022    0.2448 H   0  0  0  0  0  0  0  0  0  0  0  0
   -3.3778   -2.3880    1.9043 H   0  0  0  0  0  0  0  0  0  0  0  0
   -4.7858   -2.4573    0.8629 H   0  0  0  0  0  0  0  0  0  0  0  0
   -5.0922   -0.8111   -1.0194 H   0  0  0  0  0  0  0  0  0  0  0  0
   -3.5593   -1.3224   -1.7534 H   0  0  0  0  0  0  0  0  0  0  0  0
   -3.8695    0.3902   -1.3772 H   0  0  0  0  0  0  0  0  0  0  0  0
   -1.5909   -0.5746    1.5486 H   0  0  0  0  0  0  0  0  0  0  0  0
   -1.4235   -0.0954   -1.4877 H   0  0  0  0  0  0  0  0  0  0  0  0
    2.8341    2.2410   -1.2437 H   0  0  0  0  0  0  0  0  0  0  0  0
    0.6328   -1.5155    1.1537 H   0  0  0  0  0  0  0  0  0  0  0  0
    2.8229   -2.0441    2.2689 H   0  0  0  0  0  0  0  0  0  0  0  0
    5.2144   -1.4903    2.5376 H   0  0  0  0  0  0  0  0  0  0  0  0
    1.5317    2.6503   -3.1528 H   0  0  0  0  0  0  0  0  0  0  0  0
    1.1087    3.7530   -1.7838 H   0  0  0  0  0  0  0  0  0  0  0  0
   -0.0401    3.4560   -3.0936 H   0  0  0  0  0  0  0  0  0  0  0  0
   -3.8550    0.9685    0.9895 H   0  0  0  0  0  0  0  0  0  0  0  0
  1  2  1  0
  2  3  1  0
  2  4  1  0
  4  5  2  3
  5  6  1  0
  6  7  2  0
  7  8  1  0
  8  9  2  0
  9 10  1  0
 10 11  2  0
 10 12  1  0
 12 13  2  0
 13 14  1  0
 14 15  2  0
 14 16  1  0
  7 17  1  0
 17 18  1  0
  2 19  1  0
 11  6  1  0
 16  9  1  0
  1 20  1  0
  1 21  1  0
  1 22  1  0
  3 23  1  0
  3 24  1  0
  3 25  1  0
  4 26  1  0
  5 27  1  0
  8 28  1  0
 11 29  1  0
 12 30  1  0
 13 31  1  0
 18 32  1  0
 18 33  1  0
 18 34  1  0
 19 35  1  0
M  END
>  <Name>  (115) 
Suberenol

>  <PubChem ID>  (115) 
5375166

>  <CDB ID>  (115) 
CDB0115

>  <Smiles>  (115) 
CC(C)(C=CC1=C(C=C2C(=C1)C=CC(=O)O2)OC)O

>  <Chemical class>  (115) 
7-Oxygenated Coumarins

>  <Natural source>  (115) 
Zanthoxylum suberosum

>  <Molecular Formula>  (115) 
C15H16O4

>  <InChI-Key>  (115) 
LNFVZUMSDAIQDQ-UHFFFAOYSA-N

>  <Total Molweight>  (115) 
260.288

>  <cLogP>  (115) 
2.3312

>  <cLogS>  (115) 
-3.276

>  <H-Acceptors>  (115) 
4

>  <H-Donors>  (115) 
1

>  <Rotatable Bonds>  (115) 
3

>  <Polar Surface Area>  (115) 
55.76

$$$$
CDB0116
     RDKit          3D

 33 35  0  0  0  0  0  0  0  0999 V2000
    3.6651   -1.8764   -0.4340 C   0  0  0  0  0  0  0  0  0  0  0  0
    3.6982   -0.6449    0.4307 C   0  0  0  0  0  0  0  0  0  0  0  0
    4.8671   -0.0750    0.7697 C   0  0  0  0  0  0  0  0  0  0  0  0
    2.3863   -0.1405    0.8829 C   0  0  0  0  0  0  0  0  0  0  0  0
    1.5207    0.6160   -0.1164 C   0  0  0  0  0  0  0  0  0  0  0  0
    2.1001    1.2544    1.0358 O   0  0  0  0  0  0  0  0  0  0  0  0
    0.0174    0.4366   -0.1323 C   0  0  0  0  0  0  0  0  0  0  0  0
   -0.8582    1.5470   -0.2137 C   0  0  0  0  0  0  0  0  0  0  0  0
   -2.2436    1.3609   -0.2347 C   0  0  0  0  0  0  0  0  0  0  0  0
   -2.7590    0.0689   -0.1802 C   0  0  0  0  0  0  0  0  0  0  0  0
   -1.9334   -1.0459   -0.1134 C   0  0  0  0  0  0  0  0  0  0  0  0
   -0.5506   -0.8562   -0.0960 C   0  0  0  0  0  0  0  0  0  0  0  0
   -2.5343   -2.3686   -0.0674 C   0  0  0  0  0  0  0  0  0  0  0  0
   -3.8655   -2.4863   -0.0898 C   0  0  0  0  0  0  0  0  0  0  0  0
   -4.7619   -1.3188   -0.1611 C   0  0  0  0  0  0  0  0  0  0  0  0
   -5.9784   -1.4645   -0.1811 O   0  0  0  0  0  0  0  0  0  0  0  0
   -4.1615   -0.0678   -0.2050 O   0  0  0  0  0  0  0  0  0  0  0  0
   -0.2433    2.7717   -0.2980 O   0  0  0  0  0  0  0  0  0  0  0  0
   -1.0618    3.9262   -0.1637 C   0  0  0  0  0  0  0  0  0  0  0  0
    3.1213   -1.6755   -1.3629 H   0  0  0  0  0  0  0  0  0  0  0  0
    4.6693   -2.2208   -0.7030 H   0  0  0  0  0  0  0  0  0  0  0  0
    3.1616   -2.6948    0.0913 H   0  0  0  0  0  0  0  0  0  0  0  0
    5.8202   -0.4669    0.4305 H   0  0  0  0  0  0  0  0  0  0  0  0
    4.8899    0.8119    1.3974 H   0  0  0  0  0  0  0  0  0  0  0  0
    1.9023   -0.7929    1.6027 H   0  0  0  0  0  0  0  0  0  0  0  0
    1.9675    0.8820   -1.0703 H   0  0  0  0  0  0  0  0  0  0  0  0
   -2.9377    2.1907   -0.3034 H   0  0  0  0  0  0  0  0  0  0  0  0
    0.1099   -1.7199   -0.0531 H   0  0  0  0  0  0  0  0  0  0  0  0
   -1.8944   -3.2423   -0.0144 H   0  0  0  0  0  0  0  0  0  0  0  0
   -4.3545   -3.4524   -0.0564 H   0  0  0  0  0  0  0  0  0  0  0  0
   -1.7313    4.0329   -1.0232 H   0  0  0  0  0  0  0  0  0  0  0  0
   -1.6229    3.9100    0.7766 H   0  0  0  0  0  0  0  0  0  0  0  0
   -0.4047    4.8010   -0.1440 H   0  0  0  0  0  0  0  0  0  0  0  0
  1  2  1  0
  2  3  2  0
  2  4  1  0
  4  5  1  0
  5  6  1  0
  5  7  1  0
  7  8  2  0
  8  9  1  0
  9 10  2  0
 10 11  1  0
 11 12  2  0
 11 13  1  0
 13 14  2  0
 14 15  1  0
 15 16  2  0
 15 17  1  0
  8 18  1  0
 18 19  1  0
  6  4  1  0
 12  7  1  0
 17 10  1  0
  1 20  1  0
  1 21  1  0
  1 22  1  0
  3 23  1  0
  3 24  1  0
  4 25  1  0
  5 26  1  0
  9 27  1  0
 12 28  1  0
 13 29  1  0
 14 30  1  0
 19 31  1  0
 19 32  1  0
 19 33  1  0
M  END
>  <Name>  (116) 
Thamnosmin

>  <PubChem ID>  (116) 
90218

>  <CDB ID>  (116) 
CDB0116

>  <Smiles>  (116) 
CC(=C)C1C(O1)C2=C(C=C3C(=C2)C=CC(=O)O3)OC

>  <Chemical class>  (116) 
7-Oxygenated Coumarins

>  <Natural source>  (116) 
Thamnosma montana

>  <Molecular Formula>  (116) 
C15H14O4

>  <InChI-Key>  (116) 
OWHKEKWVODZGMR-UHFFFAOYSA-N

>  <Total Molweight>  (116) 
258.272

>  <cLogP>  (116) 
2.346

>  <cLogS>  (116) 
-3.028

>  <H-Acceptors>  (116) 
4

>  <H-Donors>  (116) 
0

>  <Rotatable Bonds>  (116) 
3

>  <Polar Surface Area>  (116) 
48.06

$$$$
CDB0117
     RDKit          3D

 35 36  0  0  0  0  0  0  0  0999 V2000
    4.4021    0.1020    0.5458 C   0  0  0  0  0  0  0  0  0  0  0  0
    3.4062   -0.4966   -0.4520 C   0  0  0  0  0  0  0  0  0  0  0  0
    3.9904   -0.4121   -1.8645 C   0  0  0  0  0  0  0  0  0  0  0  0
    2.0460    0.2244   -0.3967 C   0  0  0  0  0  0  0  0  0  0  0  0
    1.1633   -0.2559    0.7471 C   0  0  0  0  0  0  0  0  0  0  0  0
    1.6213   -0.7889    1.7576 O   0  0  0  0  0  0  0  0  0  0  0  0
   -0.3219   -0.1239    0.6354 C   0  0  0  0  0  0  0  0  0  0  0  0
   -0.9689    0.9250   -0.0490 C   0  0  0  0  0  0  0  0  0  0  0  0
   -2.3679    0.9351   -0.1018 C   0  0  0  0  0  0  0  0  0  0  0  0
   -3.0943   -0.0737    0.5324 C   0  0  0  0  0  0  0  0  0  0  0  0
   -2.4713   -1.1021    1.2282 C   0  0  0  0  0  0  0  0  0  0  0  0
   -1.0796   -1.1236    1.2799 C   0  0  0  0  0  0  0  0  0  0  0  0
   -3.2880   -2.1149    1.8753 C   0  0  0  0  0  0  0  0  0  0  0  0
   -4.6197   -2.0408    1.7868 C   0  0  0  0  0  0  0  0  0  0  0  0
   -5.3046   -0.9631    1.0511 C   0  0  0  0  0  0  0  0  0  0  0  0
   -6.5275   -0.9269    0.9856 O   0  0  0  0  0  0  0  0  0  0  0  0
   -4.4995   -0.0068    0.4453 O   0  0  0  0  0  0  0  0  0  0  0  0
   -0.1842    1.8965   -0.6072 O   0  0  0  0  0  0  0  0  0  0  0  0
   -0.8264    2.9969   -1.2415 C   0  0  0  0  0  0  0  0  0  0  0  0
    5.3594   -0.4284    0.5004 H   0  0  0  0  0  0  0  0  0  0  0  0
    4.5938    1.1587    0.3296 H   0  0  0  0  0  0  0  0  0  0  0  0
    4.0357    0.0307    1.5738 H   0  0  0  0  0  0  0  0  0  0  0  0
    3.2688   -1.5575   -0.2078 H   0  0  0  0  0  0  0  0  0  0  0  0
    3.3227   -0.8871   -2.5911 H   0  0  0  0  0  0  0  0  0  0  0  0
    4.9569   -0.9245   -1.9179 H   0  0  0  0  0  0  0  0  0  0  0  0
    4.1403    0.6289   -2.1710 H   0  0  0  0  0  0  0  0  0  0  0  0
    2.2014    1.3037   -0.2954 H   0  0  0  0  0  0  0  0  0  0  0  0
    1.5078    0.0292   -1.3321 H   0  0  0  0  0  0  0  0  0  0  0  0
   -2.9232    1.7113   -0.6175 H   0  0  0  0  0  0  0  0  0  0  0  0
   -0.5669   -1.9191    1.8196 H   0  0  0  0  0  0  0  0  0  0  0  0
   -2.8047   -2.9164    2.4240 H   0  0  0  0  0  0  0  0  0  0  0  0
   -5.2647   -2.7742    2.2553 H   0  0  0  0  0  0  0  0  0  0  0  0
   -1.4067    2.6665   -2.1091 H   0  0  0  0  0  0  0  0  0  0  0  0
   -0.0466    3.6748   -1.6018 H   0  0  0  0  0  0  0  0  0  0  0  0
   -1.4495    3.5526   -0.5333 H   0  0  0  0  0  0  0  0  0  0  0  0
  1  2  1  0
  2  3  1  0
  2  4  1  0
  4  5  1  0
  5  6  2  0
  5  7  1  0
  7  8  1  0
  8  9  2  0
  9 10  1  0
 10 11  2  0
 11 12  1  0
 11 13  1  0
 13 14  2  0
 14 15  1  0
 15 16  2  0
 15 17  1  0
  8 18  1  0
 18 19  1  0
 12  7  2  0
 17 10  1  0
  1 20  1  0
  1 21  1  0
  1 22  1  0
  2 23  1  0
  3 24  1  0
  3 25  1  0
  3 26  1  0
  4 27  1  0
  4 28  1  0
  9 29  1  0
 12 30  1  0
 13 31  1  0
 14 32  1  0
 19 33  1  0
 19 34  1  0
 19 35  1  0
M  END
>  <Name>  (117) 
Geijerin

>  <PubChem ID>  (117) 
235195

>  <CDB ID>  (117) 
CDB0117

>  <Smiles>  (117) 
CC(C)CC(=O)C1=C(C=C2C(=C1)C=CC(=O)O2)OC

>  <Chemical class>  (117) 
7-Oxygenated Coumarins

>  <Natural source>  (117) 
Geijera salicifolia

>  <Molecular Formula>  (117) 
C15H16O4

>  <InChI-Key>  (117) 
ZXVIZFSHTAUXCC-UHFFFAOYSA-N

>  <Total Molweight>  (117) 
260.288

>  <cLogP>  (117) 
2.4257

>  <cLogS>  (117) 
-3.772

>  <H-Acceptors>  (117) 
4

>  <H-Donors>  (117) 
0

>  <Rotatable Bonds>  (117) 
4

>  <Polar Surface Area>  (117) 
52.6

$$$$
CDB0118
     RDKit          3D

 33 34  0  0  0  0  0  0  0  0999 V2000
   -4.2225    0.7828   -0.0052 C   0  0  0  0  0  0  0  0  0  0  0  0
   -3.4118   -0.2681    0.7031 C   0  0  0  0  0  0  0  0  0  0  0  0
   -2.0671   -0.3004    0.7821 C   0  0  0  0  0  0  0  0  0  0  0  0
   -1.1361    0.7360    0.2481 C   0  0  0  0  0  0  0  0  0  0  0  0
   -1.4817    1.8893    0.0164 O   0  0  0  0  0  0  0  0  0  0  0  0
    0.2924    0.3648    0.0842 C   0  0  0  0  0  0  0  0  0  0  0  0
    0.7169   -0.8766   -0.4141 C   0  0  0  0  0  0  0  0  0  0  0  0
    2.0785   -1.1696   -0.5106 C   0  0  0  0  0  0  0  0  0  0  0  0
    3.0065   -0.1944   -0.1558 C   0  0  0  0  0  0  0  0  0  0  0  0
    2.6120    1.0616    0.3001 C   0  0  0  0  0  0  0  0  0  0  0  0
    1.2488    1.3407    0.4180 C   0  0  0  0  0  0  0  0  0  0  0  0
    3.6322    2.0388    0.6421 C   0  0  0  0  0  0  0  0  0  0  0  0
    4.9226    1.7139    0.5169 C   0  0  0  0  0  0  0  0  0  0  0  0
    5.3640    0.3906    0.0414 C   0  0  0  0  0  0  0  0  0  0  0  0
    6.5562    0.1268   -0.0594 O   0  0  0  0  0  0  0  0  0  0  0  0
    4.3701   -0.5242   -0.2813 O   0  0  0  0  0  0  0  0  0  0  0  0
   -0.1694   -1.8536   -0.7834 O   0  0  0  0  0  0  0  0  0  0  0  0
   -0.4703   -1.7483   -2.1778 C   0  0  0  0  0  0  0  0  0  0  0  0
   -4.2339   -1.3541    1.3461 C   0  0  0  0  0  0  0  0  0  0  0  0
   -4.6298    1.4966    0.7174 H   0  0  0  0  0  0  0  0  0  0  0  0
   -3.6555    1.3292   -0.7619 H   0  0  0  0  0  0  0  0  0  0  0  0
   -5.0615    0.3187   -0.5360 H   0  0  0  0  0  0  0  0  0  0  0  0
   -1.5827   -1.1275    1.2945 H   0  0  0  0  0  0  0  0  0  0  0  0
    2.4112   -2.1408   -0.8650 H   0  0  0  0  0  0  0  0  0  0  0  0
    0.9158    2.3143    0.7753 H   0  0  0  0  0  0  0  0  0  0  0  0
    3.3315    3.0201    0.9934 H   0  0  0  0  0  0  0  0  0  0  0  0
    5.7134    2.4132    0.7606 H   0  0  0  0  0  0  0  0  0  0  0  0
    0.4200   -1.9382   -2.7870 H   0  0  0  0  0  0  0  0  0  0  0  0
   -1.2154   -2.5127   -2.4171 H   0  0  0  0  0  0  0  0  0  0  0  0
   -0.8974   -0.7693   -2.4216 H   0  0  0  0  0  0  0  0  0  0  0  0
   -4.8147   -1.8907    0.5887 H   0  0  0  0  0  0  0  0  0  0  0  0
   -4.9268   -0.9216    2.0755 H   0  0  0  0  0  0  0  0  0  0  0  0
   -3.6153   -2.0890    1.8721 H   0  0  0  0  0  0  0  0  0  0  0  0
  1  2  1  0
  2  3  2  3
  3  4  1  0
  4  5  2  0
  4  6  1  0
  6  7  1  0
  7  8  2  0
  8  9  1  0
  9 10  2  0
 10 11  1  0
 10 12  1  0
 12 13  2  0
 13 14  1  0
 14 15  2  0
 14 16  1  0
  7 17  1  0
 17 18  1  0
  2 19  1  0
 11  6  2  0
 16  9  1  0
  1 20  1  0
  1 21  1  0
  1 22  1  0
  3 23  1  0
  8 24  1  0
 11 25  1  0
 12 26  1  0
 13 27  1  0
 18 28  1  0
 18 29  1  0
 18 30  1  0
 19 31  1  0
 19 32  1  0
 19 33  1  0
M  END
>  <Name>  (118) 
Dehydrogeijerin

>  <PubChem ID>  (118) 
620900

>  <CDB ID>  (118) 
CDB0118

>  <Smiles>  (118) 
CC(=CC(=O)C1=C(C=C2C(=C1)C=CC(=O)O2)OC)C

>  <Chemical class>  (118) 
7-Oxygenated Coumarins

>  <Natural source>  (118) 
Geijera parviflora

>  <Molecular Formula>  (118) 
C15H14O4

>  <InChI-Key>  (118) 
XJDSLGAFRQCARR-UHFFFAOYSA-N

>  <Total Molweight>  (118) 
258.272

>  <cLogP>  (118) 
2.5616

>  <cLogS>  (118) 
-3.508

>  <H-Acceptors>  (118) 
4

>  <H-Donors>  (118) 
0

>  <Rotatable Bonds>  (118) 
3

>  <Polar Surface Area>  (118) 
52.6

$$$$
CDB0119
     RDKit          3D

 36 37  0  0  0  0  0  0  0  0999 V2000
   -4.6603    0.1962   -0.9134 C   0  0  0  0  0  0  0  0  0  0  0  0
   -3.4779    0.7827   -0.6525 C   0  0  0  0  0  0  0  0  0  0  0  0
   -3.2764    2.2508   -0.9199 C   0  0  0  0  0  0  0  0  0  0  0  0
   -2.2777    0.0581   -0.0456 C   0  0  2  0  0  0  0  0  0  0  0  0
   -1.2467   -0.3134   -1.1328 C   0  0  0  0  0  0  0  0  0  0  0  0
    0.1902   -0.2536   -0.6379 C   0  0  0  0  0  0  0  0  0  0  0  0
    0.8415   -1.3807   -0.0955 C   0  0  0  0  0  0  0  0  0  0  0  0
    0.0924   -2.5257   -0.0020 O   0  0  0  0  0  0  0  0  0  0  0  0
    0.8040   -3.7438    0.1997 C   0  0  0  0  0  0  0  0  0  0  0  0
    2.1611   -1.2705    0.3481 C   0  0  0  0  0  0  0  0  0  0  0  0
    2.8201   -0.0465    0.2424 C   0  0  0  0  0  0  0  0  0  0  0  0
    4.1512    0.0092    0.7033 O   0  0  0  0  0  0  0  0  0  0  0  0
    4.8847    1.1862    0.6401 C   0  0  0  0  0  0  0  0  0  0  0  0
    6.0440    1.2588    1.0303 O   0  0  0  0  0  0  0  0  0  0  0  0
    4.2056    2.3657    0.0752 C   0  0  0  0  0  0  0  0  0  0  0  0
    2.9438    2.3255   -0.3636 C   0  0  0  0  0  0  0  0  0  0  0  0
    2.2000    1.0793   -0.2872 C   0  0  0  0  0  0  0  0  0  0  0  0
    0.8804    0.9732   -0.7253 C   0  0  0  0  0  0  0  0  0  0  0  0
   -2.7310   -1.1476    0.5987 O   0  0  0  0  0  0  0  0  0  0  0  0
   -1.8803   -1.3502    1.7663 O   0  0  0  0  0  0  0  0  0  0  0  0
   -4.8306   -0.8578   -0.7119 H   0  0  0  0  0  0  0  0  0  0  0  0
   -5.4954    0.7514   -1.3293 H   0  0  0  0  0  0  0  0  0  0  0  0
   -2.4656    2.4070   -1.6379 H   0  0  0  0  0  0  0  0  0  0  0  0
   -4.1758    2.7222   -1.3305 H   0  0  0  0  0  0  0  0  0  0  0  0
   -3.0239    2.7739    0.0082 H   0  0  0  0  0  0  0  0  0  0  0  0
   -1.8437    0.7199    0.7161 H   0  0  0  0  0  0  0  0  0  0  0  0
   -1.4546   -1.3126   -1.5367 H   0  0  0  0  0  0  0  0  0  0  0  0
   -1.3182    0.3642   -1.9937 H   0  0  0  0  0  0  0  0  0  0  0  0
    0.0944   -4.5675    0.0762 H   0  0  0  0  0  0  0  0  0  0  0  0
    1.2010   -3.7968    1.2184 H   0  0  0  0  0  0  0  0  0  0  0  0
    1.5981   -3.8722   -0.5436 H   0  0  0  0  0  0  0  0  0  0  0  0
    2.6950   -2.1045    0.7899 H   0  0  0  0  0  0  0  0  0  0  0  0
    4.7952    3.2736    0.0369 H   0  0  0  0  0  0  0  0  0  0  0  0
    2.4643    3.2066   -0.7753 H   0  0  0  0  0  0  0  0  0  0  0  0
    0.3771    1.8438   -1.1416 H   0  0  0  0  0  0  0  0  0  0  0  0
   -1.2860   -2.0051    1.3496 H   0  0  0  0  0  0  0  0  0  0  0  0
  1  2  2  0
  2  3  1  0
  2  4  1  0
  4  5  1  0
  5  6  1  0
  6  7  2  0
  7  8  1  0
  8  9  1  0
  7 10  1  0
 10 11  2  0
 11 12  1  0
 12 13  1  0
 13 14  2  0
 13 15  1  0
 15 16  2  0
 16 17  1  0
 17 18  2  0
  4 19  1  0
 19 20  1  0
 18  6  1  0
 17 11  1  0
  1 21  1  0
  1 22  1  0
  3 23  1  0
  3 24  1  0
  3 25  1  0
  4 26  1  1
  5 27  1  0
  5 28  1  0
  9 29  1  0
  9 30  1  0
  9 31  1  0
 10 32  1  0
 15 33  1  0
 16 34  1  0
 18 35  1  0
 20 36  1  0
M  END
>  <Name>  (119) 
Peroxytamarin

>  <PubChem ID>  (119) 
15108308

>  <CDB ID>  (119) 
CDB0119

>  <Smiles>  (119) 
C=C(C)[C@H](CC1=C(OC)C=C2OC(=O)C=CC2=C1)OO

>  <Chemical class>  (119) 
7-Oxygenated Coumarins

>  <Natural source>  (119) 
Citrus sulcata

>  <Molecular Formula>  (119) 
C15H16O5

>  <InChI-Key>  (119) 
LZJVVLHCLPNUJM-LBPRGKRZSA-N

>  <Total Molweight>  (119) 
276.287

>  <cLogP>  (119) 
2.6969

>  <cLogS>  (119) 
-3.42

>  <H-Acceptors>  (119) 
5

>  <H-Donors>  (119) 
1

>  <Rotatable Bonds>  (119) 
5

>  <Polar Surface Area>  (119) 
64.99

$$$$
CDB0120
     RDKit          3D

 56 58  0  0  0  0  0  0  0  0999 V2000
    2.8212   -2.5886    0.7305 C   0  0  0  0  0  0  0  0  0  0  0  0
    3.2651   -1.2727    1.3757 C   0  0  0  0  0  0  0  0  0  0  0  0
    4.7040   -0.9476    0.9747 C   0  0  0  0  0  0  0  0  0  0  0  0
    2.2955   -0.0899    1.0960 C   0  0  0  0  0  0  0  0  0  0  0  0
    2.1533    0.2874   -0.3900 C   0  0  0  0  0  0  0  0  0  0  0  0
    1.2356    1.4750   -0.6086 C   0  0  0  0  0  0  0  0  0  0  0  0
   -0.0272    1.3325   -1.2074 C   0  0  0  0  0  0  0  0  0  0  0  0
   -0.8464    2.4422   -1.4215 C   0  0  0  0  0  0  0  0  0  0  0  0
   -0.4126    3.6928   -0.9932 C   0  0  0  0  0  0  0  0  0  0  0  0
    0.8229    3.8672   -0.3769 C   0  0  0  0  0  0  0  0  0  0  0  0
    1.6485    2.7556   -0.1915 C   0  0  0  0  0  0  0  0  0  0  0  0
    1.2159    5.2007    0.0476 C   0  0  0  0  0  0  0  0  0  0  0  0
    0.3892    6.2291   -0.1655 C   0  0  0  0  0  0  0  0  0  0  0  0
   -0.9200    6.0690   -0.8225 C   0  0  0  0  0  0  0  0  0  0  0  0
   -1.6509    7.0353   -1.0062 O   0  0  0  0  0  0  0  0  0  0  0  0
   -1.2732    4.7853   -1.2165 O   0  0  0  0  0  0  0  0  0  0  0  0
   -0.4071    0.1058   -1.6817 O   0  0  0  0  0  0  0  0  0  0  0  0
   -1.5216   -0.4554   -0.9609 C   0  0  0  0  0  0  0  0  0  0  0  0
   -2.3642   -1.2137   -2.0069 C   0  0  0  0  0  0  0  0  0  0  0  0
   -3.5061   -1.9671   -1.3299 C   0  0  0  0  0  0  0  0  0  0  0  0
   -2.9947   -2.8131   -0.1617 C   0  0  0  0  0  0  0  0  0  0  0  0
   -2.1160   -1.9671    0.7776 C   0  0  0  0  0  0  0  0  0  0  0  0
   -1.0348   -1.3604    0.0396 O   0  0  0  0  0  0  0  0  0  0  0  0
   -1.5331   -2.8134    1.9225 C   0  0  0  0  0  0  0  0  0  0  0  0
   -0.8196   -3.9489    1.4339 O   0  0  0  0  0  0  0  0  0  0  0  0
   -4.1074   -3.3606    0.5508 O   0  0  0  0  0  0  0  0  0  0  0  0
   -4.4822   -1.0329   -0.8286 O   0  0  0  0  0  0  0  0  0  0  0  0
   -2.9258   -0.3101   -2.9742 O   0  0  0  0  0  0  0  0  0  0  0  0
    1.0177   -0.4184    1.6727 O   0  0  0  0  0  0  0  0  0  0  0  0
    3.2671   -1.4893    2.7985 O   0  0  0  0  0  0  0  0  0  0  0  0
    2.8401   -2.5381   -0.3621 H   0  0  0  0  0  0  0  0  0  0  0  0
    1.8121   -2.8684    1.0500 H   0  0  0  0  0  0  0  0  0  0  0  0
    3.4758   -3.4108    1.0432 H   0  0  0  0  0  0  0  0  0  0  0  0
    5.3905   -1.7272    1.3251 H   0  0  0  0  0  0  0  0  0  0  0  0
    5.0361   -0.0136    1.4419 H   0  0  0  0  0  0  0  0  0  0  0  0
    4.8199   -0.8553   -0.1092 H   0  0  0  0  0  0  0  0  0  0  0  0
    2.6471    0.7781    1.6674 H   0  0  0  0  0  0  0  0  0  0  0  0
    1.7854   -0.5720   -0.9597 H   0  0  0  0  0  0  0  0  0  0  0  0
    3.1305    0.5397   -0.8180 H   0  0  0  0  0  0  0  0  0  0  0  0
   -1.8049    2.3467   -1.9215 H   0  0  0  0  0  0  0  0  0  0  0  0
    2.6215    2.8784    0.2807 H   0  0  0  0  0  0  0  0  0  0  0  0
    2.1747    5.3424    0.5342 H   0  0  0  0  0  0  0  0  0  0  0  0
    0.6432    7.2379    0.1365 H   0  0  0  0  0  0  0  0  0  0  0  0
   -2.1245    0.3298   -0.4844 H   0  0  0  0  0  0  0  0  0  0  0  0
   -1.7301   -1.9276   -2.5473 H   0  0  0  0  0  0  0  0  0  0  0  0
   -4.0429   -2.5936   -2.0513 H   0  0  0  0  0  0  0  0  0  0  0  0
   -2.4110   -3.6442   -0.5740 H   0  0  0  0  0  0  0  0  0  0  0  0
   -2.7077   -1.1688    1.2449 H   0  0  0  0  0  0  0  0  0  0  0  0
   -2.3193   -3.1621    2.6004 H   0  0  0  0  0  0  0  0  0  0  0  0
   -0.8246   -2.2192    2.5067 H   0  0  0  0  0  0  0  0  0  0  0  0
   -1.4700   -4.6679    1.3357 H   0  0  0  0  0  0  0  0  0  0  0  0
   -4.8014   -2.6678    0.5261 H   0  0  0  0  0  0  0  0  0  0  0  0
   -4.6889   -0.4541   -1.5933 H   0  0  0  0  0  0  0  0  0  0  0  0
   -2.1652    0.1237   -3.4088 H   0  0  0  0  0  0  0  0  0  0  0  0
    0.4930   -0.8920    0.9927 H   0  0  0  0  0  0  0  0  0  0  0  0
    2.3277   -1.4225    3.0677 H   0  0  0  0  0  0  0  0  0  0  0  0
  1  2  1  0
  2  3  1  0
  2  4  1  0
  4  5  1  0
  5  6  1  0
  6  7  2  0
  7  8  1  0
  8  9  2  0
  9 10  1  0
 10 11  2  0
 10 12  1  0
 12 13  2  0
 13 14  1  0
 14 15  2  0
 14 16  1  0
  7 17  1  0
 17 18  1  0
 18 19  1  0
 19 20  1  0
 20 21  1  0
 21 22  1  0
 22 23  1  0
 22 24  1  0
 24 25  1  0
 21 26  1  0
 20 27  1  0
 19 28  1  0
  4 29  1  0
  2 30  1  0
 11  6  1  0
 16  9  1  0
 23 18  1  0
  1 31  1  0
  1 32  1  0
  1 33  1  0
  3 34  1  0
  3 35  1  0
  3 36  1  0
  4 37  1  0
  5 38  1  0
  5 39  1  0
  8 40  1  0
 11 41  1  0
 12 42  1  0
 13 43  1  0
 18 44  1  0
 19 45  1  0
 20 46  1  0
 21 47  1  0
 22 48  1  0
 24 49  1  0
 24 50  1  0
 25 51  1  0
 26 52  1  0
 27 53  1  0
 28 54  1  0
 29 55  1  0
 30 56  1  0
M  END
>  <Name>  (120) 
Peucedanol

>  <PubChem ID>  (120) 
44144279

>  <CDB ID>  (120) 
CDB0120

>  <Smiles>  (120) 
CC(C)(C(CC1=C(C=C2C(=C1)C=CC(=O)O2)OC3C(C(C(C(O3)CO)O)O)O)O)O

>  <Chemical class>  (120) 
7-Oxygenated Coumarins

>  <Natural source>  (120) 
Peucedanum japonicum

>  <Molecular Formula>  (120) 
C20H26O10

>  <InChI-Key>  (120) 
DMCVVAVPFHUPNH-UHFFFAOYSA-N

>  <Total Molweight>  (120) 
426.416

>  <cLogP>  (120) 
-0.8323

>  <cLogS>  (120) 
-2.314

>  <H-Acceptors>  (120) 
10

>  <H-Donors>  (120) 
6

>  <Rotatable Bonds>  (120) 
6

>  <Polar Surface Area>  (120) 
166.14

$$$$
CDB0121
     RDKit          3D

 38 39  0  0  0  0  0  0  0  0999 V2000
    0.0420   -3.5085    0.1377 C   0  0  0  0  0  0  0  0  0  0  0  0
   -0.2116   -2.1222    0.3344 O   0  0  0  0  0  0  0  0  0  0  0  0
    0.8517   -1.2654    0.2203 C   0  0  0  0  0  0  0  0  0  0  0  0
    0.5818    0.0876    0.5161 C   0  0  0  0  0  0  0  0  0  0  0  0
   -0.8098    0.5396    0.9298 C   0  0  0  0  0  0  0  0  0  0  0  0
   -1.7911    0.5974   -0.2581 C   0  0  2  0  0  0  0  0  0  0  0  0
   -1.3546    1.6427   -1.1550 O   0  0  0  0  0  0  0  0  0  0  0  0
   -3.2518    0.9326    0.1589 C   0  0  0  0  0  0  0  0  0  0  0  0
   -4.1711    0.9730   -1.0703 C   0  0  0  0  0  0  0  0  0  0  0  0
   -3.8216   -0.0473    1.1850 C   0  0  0  0  0  0  0  0  0  0  0  0
   -3.2718    2.2434    0.7430 O   0  0  0  0  0  0  0  0  0  0  0  0
    1.6121    1.0440    0.4221 C   0  0  0  0  0  0  0  0  0  0  0  0
    2.8973    0.6642    0.0385 C   0  0  0  0  0  0  0  0  0  0  0  0
    3.9873    1.6193   -0.0692 C   0  0  0  0  0  0  0  0  0  0  0  0
    5.1983    1.1954   -0.4436 C   0  0  0  0  0  0  0  0  0  0  0  0
    5.4801   -0.2165   -0.7574 C   0  0  0  0  0  0  0  0  0  0  0  0
    6.6021   -0.5698   -1.1008 O   0  0  0  0  0  0  0  0  0  0  0  0
    4.4217   -1.1082   -0.6462 O   0  0  0  0  0  0  0  0  0  0  0  0
    3.1398   -0.6743   -0.2504 C   0  0  0  0  0  0  0  0  0  0  0  0
    2.1390   -1.6420   -0.1661 C   0  0  0  0  0  0  0  0  0  0  0  0
    0.3554   -3.7080   -0.8921 H   0  0  0  0  0  0  0  0  0  0  0  0
    0.7781   -3.8826    0.8570 H   0  0  0  0  0  0  0  0  0  0  0  0
   -0.8952   -4.0464    0.3102 H   0  0  0  0  0  0  0  0  0  0  0  0
   -1.1621   -0.1443    1.7092 H   0  0  0  0  0  0  0  0  0  0  0  0
   -0.7367    1.5290    1.3991 H   0  0  0  0  0  0  0  0  0  0  0  0
   -1.7857   -0.3428   -0.8217 H   0  0  0  0  0  0  0  0  0  0  0  0
   -0.5139    1.3382   -1.5429 H   0  0  0  0  0  0  0  0  0  0  0  0
   -5.1933    1.2453   -0.7825 H   0  0  0  0  0  0  0  0  0  0  0  0
   -3.8483    1.7343   -1.7891 H   0  0  0  0  0  0  0  0  0  0  0  0
   -4.2015    0.0042   -1.5793 H   0  0  0  0  0  0  0  0  0  0  0  0
   -4.8769    0.1718    1.3864 H   0  0  0  0  0  0  0  0  0  0  0  0
   -3.7469   -1.0823    0.8364 H   0  0  0  0  0  0  0  0  0  0  0  0
   -3.3159    0.0399    2.1520 H   0  0  0  0  0  0  0  0  0  0  0  0
   -2.7626    2.8015    0.1208 H   0  0  0  0  0  0  0  0  0  0  0  0
    1.3990    2.0867    0.6523 H   0  0  0  0  0  0  0  0  0  0  0  0
    3.8031    2.6636    0.1581 H   0  0  0  0  0  0  0  0  0  0  0  0
    6.0378    1.8739   -0.5351 H   0  0  0  0  0  0  0  0  0  0  0  0
    2.3956   -2.6673   -0.4076 H   0  0  0  0  0  0  0  0  0  0  0  0
  1  2  1  0
  2  3  1  0
  3  4  2  0
  4  5  1  0
  5  6  1  0
  6  7  1  0
  6  8  1  0
  8  9  1  0
  8 10  1  0
  8 11  1  0
  4 12  1  0
 12 13  2  0
 13 14  1  0
 14 15  2  0
 15 16  1  0
 16 17  2  0
 16 18  1  0
 18 19  1  0
 19 20  2  0
 20  3  1  0
 19 13  1  0
  1 21  1  0
  1 22  1  0
  1 23  1  0
  5 24  1  0
  5 25  1  0
  6 26  1  6
  7 27  1  0
  9 28  1  0
  9 29  1  0
  9 30  1  0
 10 31  1  0
 10 32  1  0
 10 33  1  0
 11 34  1  0
 12 35  1  0
 14 36  1  0
 15 37  1  0
 20 38  1  0
M  END
>  <Name>  (121) 
Ulopterol (Pubesinol)

>  <PubChem ID>  (121) 
176475

>  <CDB ID>  (121) 
CDB0121

>  <Smiles>  (121) 
COC1=C(C[C@H](O)C(C)(C)O)C=C2C=CC(=O)OC2=C1

>  <Chemical class>  (121) 
7-Oxygenated Coumarins

>  <Natural source>  (121) 
Prangos uloptera

>  <Molecular Formula>  (121) 
C15H18O5

>  <InChI-Key>  (121) 
BNLKKFPQJANWMM-ZDUSSCGKSA-N

>  <Total Molweight>  (121) 
278.303

>  <cLogP>  (121) 
1.4327

>  <cLogS>  (121) 
-2.742

>  <H-Acceptors>  (121) 
5

>  <H-Donors>  (121) 
2

>  <Rotatable Bonds>  (121) 
4

>  <Polar Surface Area>  (121) 
75.99

$$$$
CDB0122
     RDKit          3D

 73 76  0  0  0  0  0  0  0  0999 V2000
   -5.3566    1.3593   -2.6970 C   0  0  0  0  0  0  0  0  0  0  0  0
   -3.8407    1.2644   -2.5162 C   0  0  0  0  0  0  0  0  0  0  0  0
   -3.1522    1.8151   -3.7751 C   0  0  0  0  0  0  0  0  0  0  0  0
   -3.3429    2.0168   -1.2474 C   0  0  0  0  0  0  0  0  0  0  0  0
   -3.9665    1.5993    0.1058 C   0  0  0  0  0  0  0  0  0  0  0  0
   -3.6396    0.2162    0.6454 C   0  0  0  0  0  0  0  0  0  0  0  0
   -2.4793   -0.0280    1.4136 C   0  0  0  0  0  0  0  0  0  0  0  0
   -2.2300   -1.3077    1.9117 C   0  0  0  0  0  0  0  0  0  0  0  0
   -3.1336   -2.3342    1.6455 C   0  0  0  0  0  0  0  0  0  0  0  0
   -4.2825   -2.1231    0.8936 C   0  0  0  0  0  0  0  0  0  0  0  0
   -4.5350   -0.8434    0.3997 C   0  0  0  0  0  0  0  0  0  0  0  0
   -5.1772   -3.2400    0.6409 C   0  0  0  0  0  0  0  0  0  0  0  0
   -4.8841   -4.4435    1.1426 C   0  0  0  0  0  0  0  0  0  0  0  0
   -3.6791   -4.6891    1.9542 C   0  0  0  0  0  0  0  0  0  0  0  0
   -3.4499   -5.8030    2.4113 O   0  0  0  0  0  0  0  0  0  0  0  0
   -2.8362   -3.6077    2.1718 O   0  0  0  0  0  0  0  0  0  0  0  0
   -1.6567    1.0453    1.6006 O   0  0  0  0  0  0  0  0  0  0  0  0
   -0.6324    0.9904    2.6062 C   0  0  0  0  0  0  0  0  0  0  0  0
   -0.1575    2.4418    2.8016 C   0  0  0  0  0  0  0  0  0  0  0  0
    0.4436    2.9804    1.4936 C   0  0  0  0  0  0  0  0  0  0  0  0
    1.0993    1.8757    0.6439 C   0  0  0  0  0  0  0  0  0  0  0  0
    1.5459    0.7081    1.5418 C   0  0  0  0  0  0  0  0  0  0  0  0
    0.4453    0.1203    2.2602 O   0  0  0  0  0  0  0  0  0  0  0  0
    2.2273   -0.4247    0.7558 C   0  0  0  0  0  0  0  0  0  0  0  0
    3.5096   -0.0168    0.2884 O   0  0  0  0  0  0  0  0  0  0  0  0
    4.1555   -1.0492   -0.4549 C   0  0  0  0  0  0  0  0  0  0  0  0
    5.4204   -0.4592   -1.0993 C   0  0  0  0  0  0  0  0  0  0  0  0
    6.2740   -1.7009   -1.2424 C   0  0  0  0  0  0  0  0  0  0  0  0
    5.9399   -2.4511    0.0481 C   0  0  0  0  0  0  0  0  0  0  0  0
    4.5792   -2.1225    0.3983 O   0  0  0  0  0  0  0  0  0  0  0  0
    7.7696   -1.4442   -1.4101 C   0  0  0  0  0  0  0  0  0  0  0  0
    8.4268   -2.7015   -1.6157 O   0  0  0  0  0  0  0  0  0  0  0  0
    5.8154   -2.4668   -2.3746 O   0  0  0  0  0  0  0  0  0  0  0  0
    6.0422    0.5017   -0.2295 O   0  0  0  0  0  0  0  0  0  0  0  0
    2.1721    2.4624   -0.0953 O   0  0  0  0  0  0  0  0  0  0  0  0
   -0.5703    3.6419    0.7024 O   0  0  0  0  0  0  0  0  0  0  0  0
   -1.2177    3.3130    3.2287 O   0  0  0  0  0  0  0  0  0  0  0  0
   -1.9140    1.9126   -1.1880 O   0  0  0  0  0  0  0  0  0  0  0  0
   -3.4903   -0.1202   -2.4342 O   0  0  0  0  0  0  0  0  0  0  0  0
   -5.6697    0.8562   -3.6196 H   0  0  0  0  0  0  0  0  0  0  0  0
   -5.8961    0.8567   -1.8898 H   0  0  0  0  0  0  0  0  0  0  0  0
   -5.6902    2.4009   -2.7436 H   0  0  0  0  0  0  0  0  0  0  0  0
   -3.4932    1.2810   -4.6698 H   0  0  0  0  0  0  0  0  0  0  0  0
   -3.3576    2.8819   -3.9108 H   0  0  0  0  0  0  0  0  0  0  0  0
   -2.0669    1.6706   -3.7348 H   0  0  0  0  0  0  0  0  0  0  0  0
   -3.5679    3.0823   -1.3888 H   0  0  0  0  0  0  0  0  0  0  0  0
   -3.6484    2.3289    0.8634 H   0  0  0  0  0  0  0  0  0  0  0  0
   -5.0562    1.7182    0.0635 H   0  0  0  0  0  0  0  0  0  0  0  0
   -1.3436   -1.5429    2.4906 H   0  0  0  0  0  0  0  0  0  0  0  0
   -5.4276   -0.6672   -0.1958 H   0  0  0  0  0  0  0  0  0  0  0  0
   -6.0664   -3.0817    0.0408 H   0  0  0  0  0  0  0  0  0  0  0  0
   -5.5215   -5.3029    0.9746 H   0  0  0  0  0  0  0  0  0  0  0  0
   -1.0810    0.6401    3.5442 H   0  0  0  0  0  0  0  0  0  0  0  0
    0.6178    2.4544    3.5769 H   0  0  0  0  0  0  0  0  0  0  0  0
    1.1755    3.7615    1.7345 H   0  0  0  0  0  0  0  0  0  0  0  0
    0.3880    1.4932   -0.0950 H   0  0  0  0  0  0  0  0  0  0  0  0
    2.2708    1.0831    2.2765 H   0  0  0  0  0  0  0  0  0  0  0  0
    2.3378   -1.2995    1.4084 H   0  0  0  0  0  0  0  0  0  0  0  0
    1.5936   -0.7248   -0.0881 H   0  0  0  0  0  0  0  0  0  0  0  0
    3.4881   -1.4597   -1.2232 H   0  0  0  0  0  0  0  0  0  0  0  0
    5.1857    0.0413   -2.0438 H   0  0  0  0  0  0  0  0  0  0  0  0
    6.0094   -3.5376   -0.0618 H   0  0  0  0  0  0  0  0  0  0  0  0
    6.5695   -2.1352    0.8868 H   0  0  0  0  0  0  0  0  0  0  0  0
    7.9571   -0.8313   -2.2979 H   0  0  0  0  0  0  0  0  0  0  0  0
    8.2116   -0.9582   -0.5348 H   0  0  0  0  0  0  0  0  0  0  0  0
    9.3758   -2.5027   -1.7147 H   0  0  0  0  0  0  0  0  0  0  0  0
    6.5017   -3.1546   -2.5031 H   0  0  0  0  0  0  0  0  0  0  0  0
    5.2890    0.9238    0.2390 H   0  0  0  0  0  0  0  0  0  0  0  0
    1.7621    3.0972   -0.7124 H   0  0  0  0  0  0  0  0  0  0  0  0
   -0.8977    4.3605    1.2817 H   0  0  0  0  0  0  0  0  0  0  0  0
   -2.0168    3.0179    2.7489 H   0  0  0  0  0  0  0  0  0  0  0  0
   -1.6057    2.4939   -0.4608 H   0  0  0  0  0  0  0  0  0  0  0  0
   -2.5686   -0.1331   -2.1051 H   0  0  0  0  0  0  0  0  0  0  0  0
  1  2  1  0
  2  3  1  0
  2  4  1  0
  4  5  1  0
  5  6  1  0
  6  7  2  0
  7  8  1  0
  8  9  2  0
  9 10  1  0
 10 11  2  0
 10 12  1  0
 12 13  2  0
 13 14  1  0
 14 15  2  0
 14 16  1  0
  7 17  1  0
 17 18  1  0
 18 19  1  0
 19 20  1  0
 20 21  1  0
 21 22  1  0
 22 23  1  0
 22 24  1  0
 24 25  1  0
 25 26  1  0
 26 27  1  0
 27 28  1  0
 28 29  1  0
 29 30  1  0
 28 31  1  0
 31 32  1  0
 28 33  1  0
 27 34  1  0
 21 35  1  0
 20 36  1  0
 19 37  1  0
  4 38  1  0
  2 39  1  0
 11  6  1  0
 16  9  1  0
 23 18  1  0
 30 26  1  0
  1 40  1  0
  1 41  1  0
  1 42  1  0
  3 43  1  0
  3 44  1  0
  3 45  1  0
  4 46  1  0
  5 47  1  0
  5 48  1  0
  8 49  1  0
 11 50  1  0
 12 51  1  0
 13 52  1  0
 18 53  1  0
 19 54  1  0
 20 55  1  0
 21 56  1  0
 22 57  1  0
 24 58  1  0
 24 59  1  0
 26 60  1  0
 27 61  1  0
 29 62  1  0
 29 63  1  0
 31 64  1  0
 31 65  1  0
 32 66  1  0
 33 67  1  0
 34 68  1  0
 35 69  1  0
 36 70  1  0
 37 71  1  0
 38 72  1  0
 39 73  1  0
M  END
>  <Name>  (122) 
Peujaponiside

>  <PubChem ID>  (122) 
101665120

>  <CDB ID>  (122) 
CDB0122

>  <Smiles>  (122) 
CC(C)(C(CC1=C(C=C2C(=C1)C=CC(=O)O2)OC3C(C(C(C(O3)COC4C(C(CO4)(CO)O)O)O)O)O)O)O

>  <Chemical class>  (122) 
7-Oxygenated Coumarins

>  <Natural source>  (122) 
Peucedanum japonicum

>  <Molecular Formula>  (122) 
C25H34O14

>  <InChI-Key>  (122) 
DVLIAXKBIVLBKD-UHFFFAOYSA-N

>  <Total Molweight>  (122) 
558.531

>  <cLogP>  (122) 
-2.186

>  <cLogS>  (122) 
-1.874

>  <H-Acceptors>  (122) 
14

>  <H-Donors>  (122) 
8

>  <Rotatable Bonds>  (122) 
9

>  <Polar Surface Area>  (122) 
225.06

$$$$
CDB0123
     RDKit          3D

 36 37  0  0  0  0  0  0  0  0999 V2000
    3.3482   -2.6719    0.9284 C   0  0  0  0  0  0  0  0  0  0  0  0
    2.6266   -1.3520    0.8146 C   0  0  0  0  0  0  0  0  0  0  0  0
    2.1969   -0.7275    1.9259 C   0  0  0  0  0  0  0  0  0  0  0  0
    2.4924   -0.8120   -0.5996 C   0  0  0  0  0  0  0  0  0  0  0  0
    1.6409    0.4715   -0.8625 C   0  0  0  0  0  0  0  0  0  0  0  0
    0.1577    0.4905   -0.5037 C   0  0  0  0  0  0  0  0  0  0  0  0
   -0.5248    1.7308   -0.4413 C   0  0  0  0  0  0  0  0  0  0  0  0
   -1.8818    1.7719   -0.1113 C   0  0  0  0  0  0  0  0  0  0  0  0
   -2.5583    0.5824    0.1461 C   0  0  0  0  0  0  0  0  0  0  0  0
   -1.9229   -0.6503    0.0773 C   0  0  0  0  0  0  0  0  0  0  0  0
   -0.5671   -0.6920   -0.2530 C   0  0  0  0  0  0  0  0  0  0  0  0
   -2.6882   -1.8557    0.3494 C   0  0  0  0  0  0  0  0  0  0  0  0
   -3.9840   -1.7560    0.6610 C   0  0  0  0  0  0  0  0  0  0  0  0
   -4.6791   -0.4594    0.7416 C   0  0  0  0  0  0  0  0  0  0  0  0
   -5.8683   -0.4028    1.0322 O   0  0  0  0  0  0  0  0  0  0  0  0
   -3.9254    0.6761    0.4749 O   0  0  0  0  0  0  0  0  0  0  0  0
    0.2296    2.8363   -0.7481 O   0  0  0  0  0  0  0  0  0  0  0  0
   -0.3889    4.1112   -0.6081 C   0  0  0  0  0  0  0  0  0  0  0  0
    1.7350    0.7418   -2.2776 O   0  0  0  0  0  0  0  0  0  0  0  0
    2.0382   -1.8658   -1.4660 O   0  0  0  0  0  0  0  0  0  0  0  0
    4.3256   -2.6142    0.4382 H   0  0  0  0  0  0  0  0  0  0  0  0
    2.7666   -3.4718    0.4592 H   0  0  0  0  0  0  0  0  0  0  0  0
    3.5211   -2.9595    1.9711 H   0  0  0  0  0  0  0  0  0  0  0  0
    2.3387   -1.1683    2.9093 H   0  0  0  0  0  0  0  0  0  0  0  0
    1.6963    0.2343    1.9075 H   0  0  0  0  0  0  0  0  0  0  0  0
    3.5106   -0.5878   -0.9470 H   0  0  0  0  0  0  0  0  0  0  0  0
    2.1412    1.2949   -0.3364 H   0  0  0  0  0  0  0  0  0  0  0  0
   -2.4394    2.6998   -0.0548 H   0  0  0  0  0  0  0  0  0  0  0  0
   -0.0753   -1.6607   -0.3096 H   0  0  0  0  0  0  0  0  0  0  0  0
   -2.1942   -2.8199    0.2948 H   0  0  0  0  0  0  0  0  0  0  0  0
   -4.5895   -2.6293    0.8706 H   0  0  0  0  0  0  0  0  0  0  0  0
   -0.7251    4.2774    0.4207 H   0  0  0  0  0  0  0  0  0  0  0  0
   -1.2122    4.2282   -1.3202 H   0  0  0  0  0  0  0  0  0  0  0  0
    0.3619    4.8726   -0.8400 H   0  0  0  0  0  0  0  0  0  0  0  0
    1.2126    1.5535   -2.4216 H   0  0  0  0  0  0  0  0  0  0  0  0
    1.8845   -1.4165   -2.3220 H   0  0  0  0  0  0  0  0  0  0  0  0
  1  2  1  0
  2  3  2  0
  2  4  1  0
  4  5  1  0
  5  6  1  0
  6  7  2  0
  7  8  1  0
  8  9  2  0
  9 10  1  0
 10 11  2  0
 10 12  1  0
 12 13  2  0
 13 14  1  0
 14 15  2  0
 14 16  1  0
  7 17  1  0
 17 18  1  0
  5 19  1  0
  4 20  1  0
 11  6  1  0
 16  9  1  0
  1 21  1  0
  1 22  1  0
  1 23  1  0
  3 24  1  0
  3 25  1  0
  4 26  1  0
  5 27  1  0
  8 28  1  0
 11 29  1  0
 12 30  1  0
 13 31  1  0
 18 32  1  0
 18 33  1  0
 18 34  1  0
 19 35  1  0
 20 36  1  0
M  END
>  <Name>  (123) 
Thamnosmonin

>  <PubChem ID>  (123) 
312089

>  <CDB ID>  (123) 
CDB0123

>  <Smiles>  (123) 
CC(=C)C(C(C1=C(C=C2C(=C1)C=CC(=O)O2)OC)O)O

>  <Chemical class>  (123) 
7-Oxygenated Coumarins

>  <Natural source>  (123) 
Thamnosma montana

>  <Molecular Formula>  (123) 
C15H16O5

>  <InChI-Key>  (123) 
PMZIJDMODGMWOR-UHFFFAOYSA-N

>  <Total Molweight>  (123) 
276.287

>  <cLogP>  (123) 
1.4247

>  <cLogS>  (123) 
-2.547

>  <H-Acceptors>  (123) 
5

>  <H-Donors>  (123) 
2

>  <Rotatable Bonds>  (123) 
4

>  <Polar Surface Area>  (123) 
75.99

$$$$
CDB0124
     RDKit          3D

 34 36  0  0  0  0  0  0  0  0999 V2000
    1.4095    3.2059    1.0609 C   0  0  0  0  0  0  0  0  0  0  0  0
    0.7323    2.0053    1.4372 O   0  0  0  0  0  0  0  0  0  0  0  0
    1.1388    0.9551    0.6574 C   0  0  0  0  0  0  0  0  0  0  0  0
    0.2977    0.4310   -0.3352 C   0  0  0  0  0  0  0  0  0  0  0  0
   -0.9967    1.0830   -0.6484 C   0  0  0  0  0  0  0  0  0  0  0  0
   -1.0891    2.2993   -0.7592 O   0  0  0  0  0  0  0  0  0  0  0  0
   -2.1846    0.2352   -0.9078 C   0  0  1  0  0  0  0  0  0  0  0  0
   -2.3119   -0.9586   -0.1127 O   0  0  0  0  0  0  0  0  0  0  0  0
   -3.2714    0.0766    0.1413 C   0  0  0  0  0  0  0  0  0  0  0  0
   -3.1372    0.7080    1.4930 C   0  0  0  0  0  0  0  0  0  0  0  0
   -4.6596   -0.2609   -0.3031 C   0  0  0  0  0  0  0  0  0  0  0  0
    0.6937   -0.7043   -1.0622 C   0  0  0  0  0  0  0  0  0  0  0  0
    1.9193   -1.3164   -0.7873 C   0  0  0  0  0  0  0  0  0  0  0  0
    2.3717   -2.4943   -1.5096 C   0  0  0  0  0  0  0  0  0  0  0  0
    3.5506   -3.0432   -1.2009 C   0  0  0  0  0  0  0  0  0  0  0  0
    4.4262   -2.5008   -0.1468 C   0  0  0  0  0  0  0  0  0  0  0  0
    5.5025   -3.0291    0.1057 O   0  0  0  0  0  0  0  0  0  0  0  0
    3.9712   -1.3772    0.5300 O   0  0  0  0  0  0  0  0  0  0  0  0
    2.7319   -0.7865    0.2140 C   0  0  0  0  0  0  0  0  0  0  0  0
    2.3555    0.3358    0.9466 C   0  0  0  0  0  0  0  0  0  0  0  0
    2.4467    3.1893    1.4116 H   0  0  0  0  0  0  0  0  0  0  0  0
    0.9006    4.0436    1.5468 H   0  0  0  0  0  0  0  0  0  0  0  0
    1.3785    3.3704   -0.0221 H   0  0  0  0  0  0  0  0  0  0  0  0
   -2.4842    0.1859   -1.9479 H   0  0  0  0  0  0  0  0  0  0  0  0
   -2.1016    0.7229    1.8474 H   0  0  0  0  0  0  0  0  0  0  0  0
   -3.7265    0.1573    2.2336 H   0  0  0  0  0  0  0  0  0  0  0  0
   -3.5024    1.7395    1.4645 H   0  0  0  0  0  0  0  0  0  0  0  0
   -5.2598    0.6500   -0.3937 H   0  0  0  0  0  0  0  0  0  0  0  0
   -5.1455   -0.9224    0.4215 H   0  0  0  0  0  0  0  0  0  0  0  0
   -4.6669   -0.7670   -1.2745 H   0  0  0  0  0  0  0  0  0  0  0  0
    0.0496   -1.1066   -1.8402 H   0  0  0  0  0  0  0  0  0  0  0  0
    1.7450   -2.9152   -2.2883 H   0  0  0  0  0  0  0  0  0  0  0  0
    3.9232   -3.9218   -1.7136 H   0  0  0  0  0  0  0  0  0  0  0  0
    2.9928    0.7101    1.7420 H   0  0  0  0  0  0  0  0  0  0  0  0
  1  2  1  0
  2  3  1  0
  3  4  1  0
  4  5  1  0
  5  6  2  0
  5  7  1  0
  7  8  1  0
  8  9  1  0
  9 10  1  0
  9 11  1  0
  4 12  2  0
 12 13  1  0
 13 14  1  0
 14 15  2  0
 15 16  1  0
 16 17  2  0
 16 18  1  0
 18 19  1  0
 19 20  1  0
 20  3  2  0
  9  7  1  0
 19 13  2  0
  1 21  1  0
  1 22  1  0
  1 23  1  0
  7 24  1  6
 10 25  1  0
 10 26  1  0
 10 27  1  0
 11 28  1  0
 11 29  1  0
 11 30  1  0
 12 31  1  0
 14 32  1  0
 15 33  1  0
 20 34  1  0
M  END
>  <Name>  (124) 
Hopeyhopin

>  <PubChem ID>  (124) 
609122

>  <CDB ID>  (124) 
CDB0124

>  <Smiles>  (124) 
COC1=C(C(=O)[C@H]2OC2(C)C)C=C2C=CC(=O)OC2=C1

>  <Chemical class>  (124) 
7-Oxygenated Coumarins

>  <Natural source>  (124) 
Amyris madrensis

>  <Molecular Formula>  (124) 
C15H14O5

>  <InChI-Key>  (124) 
VFKJAXDQCDDPCK-CQSZACIVSA-N

>  <Total Molweight>  (124) 
274.271

>  <cLogP>  (124) 
1.1308

>  <cLogS>  (124) 
-3.404

>  <H-Acceptors>  (124) 
5

>  <H-Donors>  (124) 
0

>  <Rotatable Bonds>  (124) 
3

>  <Polar Surface Area>  (124) 
65.13

$$$$
CDB0125
     RDKit          3D

 45 46  0  0  0  0  0  0  0  0999 V2000
   -2.5770    3.3684   -1.2020 C   0  0  0  0  0  0  0  0  0  0  0  0
   -2.0087    2.7035    0.0363 C   0  0  0  0  0  0  0  0  0  0  0  0
   -1.2623    1.5633   -0.3783 O   0  0  0  0  0  0  0  0  0  0  0  0
   -0.6820    0.8216    0.6980 C   0  0  0  0  0  0  0  0  0  0  0  0
    0.6669    0.2310    0.2898 C   0  0  0  0  0  0  0  0  0  0  0  0
    0.9844   -0.1977   -1.0110 C   0  0  0  0  0  0  0  0  0  0  0  0
    2.2376   -0.7421   -1.3085 C   0  0  0  0  0  0  0  0  0  0  0  0
    3.1987   -0.8220   -0.3084 C   0  0  0  0  0  0  0  0  0  0  0  0
    2.9377   -0.3857    0.9848 C   0  0  0  0  0  0  0  0  0  0  0  0
    1.6751    0.1370    1.2788 C   0  0  0  0  0  0  0  0  0  0  0  0
    3.9834   -0.4915    1.9888 C   0  0  0  0  0  0  0  0  0  0  0  0
    5.1689   -1.0076    1.6500 C   0  0  0  0  0  0  0  0  0  0  0  0
    5.4660   -1.4807    0.2860 C   0  0  0  0  0  0  0  0  0  0  0  0
    6.5649   -1.9488    0.0124 O   0  0  0  0  0  0  0  0  0  0  0  0
    4.4498   -1.3682   -0.6530 O   0  0  0  0  0  0  0  0  0  0  0  0
    0.0324   -0.1825   -1.9947 O   0  0  0  0  0  0  0  0  0  0  0  0
    0.3246    0.8118   -2.9776 C   0  0  0  0  0  0  0  0  0  0  0  0
   -1.6826   -0.1712    1.3646 C   0  0  0  0  0  0  0  0  0  0  0  0
   -2.4002   -1.2793    0.5378 C   0  0  0  0  0  0  0  0  0  0  0  0
   -1.5232   -2.4638    0.1269 C   0  0  0  0  0  0  0  0  0  0  0  0
   -3.1744   -0.7418   -0.6637 C   0  0  0  0  0  0  0  0  0  0  0  0
   -3.3961   -1.8511    1.4255 O   0  0  0  0  0  0  0  0  0  0  0  0
   -1.1097   -0.7682    2.5538 O   0  0  0  0  0  0  0  0  0  0  0  0
   -3.2224    2.6739   -1.7500 H   0  0  0  0  0  0  0  0  0  0  0  0
   -1.7731    3.6621   -1.8852 H   0  0  0  0  0  0  0  0  0  0  0  0
   -3.1577    4.2562   -0.9369 H   0  0  0  0  0  0  0  0  0  0  0  0
   -1.3521    3.4042    0.5631 H   0  0  0  0  0  0  0  0  0  0  0  0
   -2.8250    2.4052    0.7009 H   0  0  0  0  0  0  0  0  0  0  0  0
   -0.4223    1.5540    1.4777 H   0  0  0  0  0  0  0  0  0  0  0  0
    2.4575   -1.1125   -2.3051 H   0  0  0  0  0  0  0  0  0  0  0  0
    1.4650    0.4830    2.2909 H   0  0  0  0  0  0  0  0  0  0  0  0
    3.7889   -0.1493    2.9993 H   0  0  0  0  0  0  0  0  0  0  0  0
    5.9759   -1.1041    2.3662 H   0  0  0  0  0  0  0  0  0  0  0  0
    1.1143    0.4665   -3.6525 H   0  0  0  0  0  0  0  0  0  0  0  0
    0.6048    1.7685   -2.5218 H   0  0  0  0  0  0  0  0  0  0  0  0
   -0.5812    0.9716   -3.5702 H   0  0  0  0  0  0  0  0  0  0  0  0
   -2.4937    0.4518    1.7645 H   0  0  0  0  0  0  0  0  0  0  0  0
   -0.7696   -2.1978   -0.6118 H   0  0  0  0  0  0  0  0  0  0  0  0
   -2.1395   -3.2604   -0.3084 H   0  0  0  0  0  0  0  0  0  0  0  0
   -1.0243   -2.9187    0.9887 H   0  0  0  0  0  0  0  0  0  0  0  0
   -3.8251   -1.5175   -1.0848 H   0  0  0  0  0  0  0  0  0  0  0  0
   -2.5171   -0.3898   -1.4612 H   0  0  0  0  0  0  0  0  0  0  0  0
   -3.8362    0.0790   -0.3654 H   0  0  0  0  0  0  0  0  0  0  0  0
   -2.9680   -1.9233    2.3014 H   0  0  0  0  0  0  0  0  0  0  0  0
   -0.3734   -1.3370    2.2647 H   0  0  0  0  0  0  0  0  0  0  0  0
  1  2  1  0
  2  3  1  0
  3  4  1  0
  4  5  1  0
  5  6  2  0
  6  7  1  0
  7  8  2  0
  8  9  1  0
  9 10  2  0
  9 11  1  0
 11 12  2  0
 12 13  1  0
 13 14  2  0
 13 15  1  0
  6 16  1  0
 16 17  1  0
  4 18  1  0
 18 19  1  0
 19 20  1  0
 19 21  1  0
 19 22  1  0
 18 23  1  0
 10  5  1  0
 15  8  1  0
  1 24  1  0
  1 25  1  0
  1 26  1  0
  2 27  1  0
  2 28  1  0
  4 29  1  0
  7 30  1  0
 10 31  1  0
 11 32  1  0
 12 33  1  0
 17 34  1  0
 17 35  1  0
 17 36  1  0
 18 37  1  0
 20 38  1  0
 20 39  1  0
 20 40  1  0
 21 41  1  0
 21 42  1  0
 21 43  1  0
 22 44  1  0
 23 45  1  0
M  END
>  <Name>  (125) 
Angelol J

>  <PubChem ID>  (125) 
10087472

>  <CDB ID>  (125) 
CDB0125

>  <Smiles>  (125) 
CCOC(C1=C(C=C2C(=C1)C=CC(=O)O2)OC)C(C(C)(C)O)O

>  <Chemical class>  (125) 
7-Oxygenated Coumarins

>  <Natural source>  (125) 
Angelica pubescens f. biserrata

>  <Molecular Formula>  (125) 
C17H22O6

>  <InChI-Key>  (125) 
SPEUNNBYNAGBGC-UHFFFAOYSA-N

>  <Total Molweight>  (125) 
322.356

>  <cLogP>  (125) 
1.1968

>  <cLogS>  (125) 
-2.622

>  <H-Acceptors>  (125) 
6

>  <H-Donors>  (125) 
2

>  <Rotatable Bonds>  (125) 
6

>  <Polar Surface Area>  (125) 
85.22

$$$$
CDB0126
     RDKit          3D

 51 52  0  0  0  0  0  0  0  0999 V2000
   -3.8805   -3.2394   -2.1319 C   0  0  0  0  0  0  0  0  0  0  0  0
   -3.1361   -2.2865   -1.2510 C   0  0  0  0  0  0  0  0  0  0  0  0
   -3.5609   -1.7110   -0.1067 C   0  0  0  0  0  0  0  0  0  0  0  0
   -4.9099   -1.9066    0.5246 C   0  0  0  0  0  0  0  0  0  0  0  0
   -2.6772   -0.7799    0.6674 C   0  0  0  0  0  0  0  0  0  0  0  0
   -2.9937   -0.2966    1.7447 O   0  0  0  0  0  0  0  0  0  0  0  0
   -1.5103   -0.5424    0.0234 O   0  0  0  0  0  0  0  0  0  0  0  0
   -0.5927    0.3700    0.6735 C   0  0  0  0  0  0  0  0  0  0  0  0
    0.8111   -0.0675    0.2687 C   0  0  0  0  0  0  0  0  0  0  0  0
    1.2256   -0.2028   -1.0763 C   0  0  0  0  0  0  0  0  0  0  0  0
    2.5330   -0.6092   -1.3620 C   0  0  0  0  0  0  0  0  0  0  0  0
    3.4124   -0.8924   -0.3191 C   0  0  0  0  0  0  0  0  0  0  0  0
    3.0289   -0.7889    1.0108 C   0  0  0  0  0  0  0  0  0  0  0  0
    1.7270   -0.3817    1.3009 C   0  0  0  0  0  0  0  0  0  0  0  0
    3.9923   -1.1068    2.0514 C   0  0  0  0  0  0  0  0  0  0  0  0
    5.2258   -1.4913    1.7092 C   0  0  0  0  0  0  0  0  0  0  0  0
    5.6565   -1.6092    0.3049 C   0  0  0  0  0  0  0  0  0  0  0  0
    6.7952   -1.9662    0.0267 O   0  0  0  0  0  0  0  0  0  0  0  0
    4.7159   -1.2993   -0.6682 O   0  0  0  0  0  0  0  0  0  0  0  0
    0.2837    0.0657   -2.0354 O   0  0  0  0  0  0  0  0  0  0  0  0
    0.6796   -0.0385   -3.3999 C   0  0  0  0  0  0  0  0  0  0  0  0
   -1.0163    1.8371    0.3538 C   0  0  0  0  0  0  0  0  0  0  0  0
   -0.2131    2.9888    1.0178 C   0  0  0  0  0  0  0  0  0  0  0  0
   -0.1816    2.8779    2.5410 C   0  0  0  0  0  0  0  0  0  0  0  0
    1.2010    3.1855    0.4648 C   0  0  0  0  0  0  0  0  0  0  0  0
   -0.9189    4.2105    0.7074 O   0  0  0  0  0  0  0  0  0  0  0  0
   -1.1035    2.1164   -1.0609 O   0  0  0  0  0  0  0  0  0  0  0  0
   -4.0226   -2.7918   -3.1205 H   0  0  0  0  0  0  0  0  0  0  0  0
   -3.2941   -4.1556   -2.2558 H   0  0  0  0  0  0  0  0  0  0  0  0
   -4.8602   -3.5262   -1.7469 H   0  0  0  0  0  0  0  0  0  0  0  0
   -2.1332   -2.0695   -1.6187 H   0  0  0  0  0  0  0  0  0  0  0  0
   -5.5863   -2.5200   -0.0736 H   0  0  0  0  0  0  0  0  0  0  0  0
   -4.8048   -2.3918    1.5010 H   0  0  0  0  0  0  0  0  0  0  0  0
   -5.4057   -0.9403    0.6701 H   0  0  0  0  0  0  0  0  0  0  0  0
   -0.6790    0.2228    1.7576 H   0  0  0  0  0  0  0  0  0  0  0  0
    2.8969   -0.7220   -2.3774 H   0  0  0  0  0  0  0  0  0  0  0  0
    1.4158   -0.3034    2.3418 H   0  0  0  0  0  0  0  0  0  0  0  0
    3.6980   -1.0279    3.0921 H   0  0  0  0  0  0  0  0  0  0  0  0
    5.9746   -1.7373    2.4525 H   0  0  0  0  0  0  0  0  0  0  0  0
    1.4817    0.6693   -3.6329 H   0  0  0  0  0  0  0  0  0  0  0  0
   -0.1851    0.2238   -4.0170 H   0  0  0  0  0  0  0  0  0  0  0  0
    0.9668   -1.0652   -3.6490 H   0  0  0  0  0  0  0  0  0  0  0  0
   -2.0573    1.9448    0.6853 H   0  0  0  0  0  0  0  0  0  0  0  0
    0.4105    2.0239    2.8809 H   0  0  0  0  0  0  0  0  0  0  0  0
   -1.1960    2.7810    2.9444 H   0  0  0  0  0  0  0  0  0  0  0  0
    0.2414    3.7849    2.9885 H   0  0  0  0  0  0  0  0  0  0  0  0
    1.8894    2.4004    0.7813 H   0  0  0  0  0  0  0  0  0  0  0  0
    1.2008    3.2322   -0.6295 H   0  0  0  0  0  0  0  0  0  0  0  0
    1.6160    4.1415    0.8071 H   0  0  0  0  0  0  0  0  0  0  0  0
   -1.1531    4.1332   -0.2407 H   0  0  0  0  0  0  0  0  0  0  0  0
   -1.0077    1.2574   -1.5204 H   0  0  0  0  0  0  0  0  0  0  0  0
  1  2  1  0
  2  3  2  3
  3  4  1  0
  3  5  1  0
  5  6  2  0
  5  7  1  0
  7  8  1  0
  8  9  1  0
  9 10  2  0
 10 11  1  0
 11 12  2  0
 12 13  1  0
 13 14  2  0
 13 15  1  0
 15 16  2  0
 16 17  1  0
 17 18  2  0
 17 19  1  0
 10 20  1  0
 20 21  1  0
  8 22  1  0
 22 23  1  0
 23 24  1  0
 23 25  1  0
 23 26  1  0
 22 27  1  0
 14  9  1  0
 19 12  1  0
  1 28  1  0
  1 29  1  0
  1 30  1  0
  2 31  1  0
  4 32  1  0
  4 33  1  0
  4 34  1  0
  8 35  1  0
 11 36  1  0
 14 37  1  0
 15 38  1  0
 16 39  1  0
 21 40  1  0
 21 41  1  0
 21 42  1  0
 22 43  1  0
 24 44  1  0
 24 45  1  0
 24 46  1  0
 25 47  1  0
 25 48  1  0
 25 49  1  0
 26 50  1  0
 27 51  1  0
M  END
>  <Name>  (126) 
Angelol G

>  <PubChem ID>  (126) 
10362168

>  <CDB ID>  (126) 
CDB0126

>  <Smiles>  (126) 
CC=C(C)C(=O)OC(C1=C(C=C2C(=C1)C=CC(=O)O2)OC)C(C(C)(C)O)O

>  <Chemical class>  (126) 
7-Oxygenated Coumarins

>  <Natural source>  (126) 
Angelica pubescens

>  <Molecular Formula>  (126) 
C20H24O7

>  <InChI-Key>  (126) 
BAHUBXAYVOCLNA-UHFFFAOYSA-N

>  <Total Molweight>  (126) 
376.404

>  <cLogP>  (126) 
2.1102

>  <cLogS>  (126) 
-3.04

>  <H-Acceptors>  (126) 
7

>  <H-Donors>  (126) 
2

>  <Rotatable Bonds>  (126) 
7

>  <Polar Surface Area>  (126) 
102.29

$$$$
CDB0127
     RDKit          3D

 51 52  0  0  0  0  0  0  0  0999 V2000
   -3.8805   -3.2394   -2.1319 C   0  0  0  0  0  0  0  0  0  0  0  0
   -3.1361   -2.2865   -1.2510 C   0  0  0  0  0  0  0  0  0  0  0  0
   -3.5609   -1.7110   -0.1067 C   0  0  0  0  0  0  0  0  0  0  0  0
   -4.9099   -1.9066    0.5246 C   0  0  0  0  0  0  0  0  0  0  0  0
   -2.6772   -0.7799    0.6674 C   0  0  0  0  0  0  0  0  0  0  0  0
   -2.9937   -0.2966    1.7447 O   0  0  0  0  0  0  0  0  0  0  0  0
   -1.5103   -0.5424    0.0234 O   0  0  0  0  0  0  0  0  0  0  0  0
   -0.5927    0.3700    0.6735 C   0  0  0  0  0  0  0  0  0  0  0  0
    0.8111   -0.0675    0.2687 C   0  0  0  0  0  0  0  0  0  0  0  0
    1.2256   -0.2028   -1.0763 C   0  0  0  0  0  0  0  0  0  0  0  0
    2.5330   -0.6092   -1.3620 C   0  0  0  0  0  0  0  0  0  0  0  0
    3.4124   -0.8924   -0.3191 C   0  0  0  0  0  0  0  0  0  0  0  0
    3.0289   -0.7889    1.0108 C   0  0  0  0  0  0  0  0  0  0  0  0
    1.7270   -0.3817    1.3009 C   0  0  0  0  0  0  0  0  0  0  0  0
    3.9923   -1.1068    2.0514 C   0  0  0  0  0  0  0  0  0  0  0  0
    5.2258   -1.4913    1.7092 C   0  0  0  0  0  0  0  0  0  0  0  0
    5.6565   -1.6092    0.3049 C   0  0  0  0  0  0  0  0  0  0  0  0
    6.7952   -1.9662    0.0267 O   0  0  0  0  0  0  0  0  0  0  0  0
    4.7159   -1.2993   -0.6682 O   0  0  0  0  0  0  0  0  0  0  0  0
    0.2837    0.0657   -2.0354 O   0  0  0  0  0  0  0  0  0  0  0  0
    0.6796   -0.0385   -3.3999 C   0  0  0  0  0  0  0  0  0  0  0  0
   -1.0163    1.8371    0.3538 C   0  0  0  0  0  0  0  0  0  0  0  0
   -0.2131    2.9888    1.0178 C   0  0  0  0  0  0  0  0  0  0  0  0
   -0.1816    2.8779    2.5410 C   0  0  0  0  0  0  0  0  0  0  0  0
    1.2010    3.1855    0.4648 C   0  0  0  0  0  0  0  0  0  0  0  0
   -0.9189    4.2105    0.7074 O   0  0  0  0  0  0  0  0  0  0  0  0
   -1.1035    2.1164   -1.0609 O   0  0  0  0  0  0  0  0  0  0  0  0
   -4.0226   -2.7918   -3.1205 H   0  0  0  0  0  0  0  0  0  0  0  0
   -3.2941   -4.1556   -2.2558 H   0  0  0  0  0  0  0  0  0  0  0  0
   -4.8602   -3.5262   -1.7469 H   0  0  0  0  0  0  0  0  0  0  0  0
   -2.1332   -2.0695   -1.6187 H   0  0  0  0  0  0  0  0  0  0  0  0
   -5.5863   -2.5200   -0.0736 H   0  0  0  0  0  0  0  0  0  0  0  0
   -4.8048   -2.3918    1.5010 H   0  0  0  0  0  0  0  0  0  0  0  0
   -5.4057   -0.9403    0.6701 H   0  0  0  0  0  0  0  0  0  0  0  0
   -0.6790    0.2228    1.7576 H   0  0  0  0  0  0  0  0  0  0  0  0
    2.8969   -0.7220   -2.3774 H   0  0  0  0  0  0  0  0  0  0  0  0
    1.4158   -0.3034    2.3418 H   0  0  0  0  0  0  0  0  0  0  0  0
    3.6980   -1.0279    3.0921 H   0  0  0  0  0  0  0  0  0  0  0  0
    5.9746   -1.7373    2.4525 H   0  0  0  0  0  0  0  0  0  0  0  0
    1.4817    0.6693   -3.6329 H   0  0  0  0  0  0  0  0  0  0  0  0
   -0.1851    0.2238   -4.0170 H   0  0  0  0  0  0  0  0  0  0  0  0
    0.9668   -1.0652   -3.6490 H   0  0  0  0  0  0  0  0  0  0  0  0
   -2.0573    1.9448    0.6853 H   0  0  0  0  0  0  0  0  0  0  0  0
    0.4105    2.0239    2.8809 H   0  0  0  0  0  0  0  0  0  0  0  0
   -1.1960    2.7810    2.9444 H   0  0  0  0  0  0  0  0  0  0  0  0
    0.2414    3.7849    2.9885 H   0  0  0  0  0  0  0  0  0  0  0  0
    1.8894    2.4004    0.7813 H   0  0  0  0  0  0  0  0  0  0  0  0
    1.2008    3.2322   -0.6295 H   0  0  0  0  0  0  0  0  0  0  0  0
    1.6160    4.1415    0.8071 H   0  0  0  0  0  0  0  0  0  0  0  0
   -1.1531    4.1332   -0.2407 H   0  0  0  0  0  0  0  0  0  0  0  0
   -1.0077    1.2574   -1.5204 H   0  0  0  0  0  0  0  0  0  0  0  0
  1  2  1  0
  2  3  2  3
  3  4  1  0
  3  5  1  0
  5  6  2  0
  5  7  1  0
  7  8  1  0
  8  9  1  0
  9 10  2  0
 10 11  1  0
 11 12  2  0
 12 13  1  0
 13 14  2  0
 13 15  1  0
 15 16  2  0
 16 17  1  0
 17 18  2  0
 17 19  1  0
 10 20  1  0
 20 21  1  0
  8 22  1  0
 22 23  1  0
 23 24  1  0
 23 25  1  0
 23 26  1  0
 22 27  1  0
 14  9  1  0
 19 12  1  0
  1 28  1  0
  1 29  1  0
  1 30  1  0
  2 31  1  0
  4 32  1  0
  4 33  1  0
  4 34  1  0
  8 35  1  0
 11 36  1  0
 14 37  1  0
 15 38  1  0
 16 39  1  0
 21 40  1  0
 21 41  1  0
 21 42  1  0
 22 43  1  0
 24 44  1  0
 24 45  1  0
 24 46  1  0
 25 47  1  0
 25 48  1  0
 25 49  1  0
 26 50  1  0
 27 51  1  0
M  END
>  <Name>  (127) 
Angelol H

>  <PubChem ID>  (127) 
44144314

>  <CDB ID>  (127) 
CDB0127

>  <Smiles>  (127) 
CC=C(C)C(=O)OC(C1=C(C=C2C(=C1)C=CC(=O)O2)OC)C(C(C)(C)O)O

>  <Chemical class>  (127) 
7-Oxygenated Coumarins

>  <Natural source>  (127) 
Angelica pubescens

>  <Molecular Formula>  (127) 
C20H24O7

>  <InChI-Key>  (127) 
BAHUBXAYVOCLNA-UHFFFAOYSA-N

>  <Total Molweight>  (127) 
376.404

>  <cLogP>  (127) 
2.1102

>  <cLogS>  (127) 
-3.04

>  <H-Acceptors>  (127) 
7

>  <H-Donors>  (127) 
2

>  <Rotatable Bonds>  (127) 
7

>  <Polar Surface Area>  (127) 
102.29

$$$$
CDB0128
     RDKit          3D

 39 40  0  0  0  0  0  0  0  0999 V2000
    1.8023   -0.8070    1.3799 C   0  0  0  0  0  0  0  0  0  0  0  0
    2.7268   -0.3336    0.2593 C   0  0  0  0  0  0  0  0  0  0  0  0
    3.2384    1.0766    0.5603 C   0  0  0  0  0  0  0  0  0  0  0  0
    2.1215   -0.5148   -1.1632 C   0  0  0  0  0  0  0  0  0  0  0  0
    0.9413    0.3869   -1.6124 C   0  0  0  0  0  0  0  0  0  0  0  0
   -0.3738    0.1796   -0.8713 C   0  0  0  0  0  0  0  0  0  0  0  0
   -0.9646    1.1346   -0.0145 C   0  0  0  0  0  0  0  0  0  0  0  0
   -2.1783    0.8482    0.6190 C   0  0  0  0  0  0  0  0  0  0  0  0
   -2.7948   -0.3826    0.4051 C   0  0  0  0  0  0  0  0  0  0  0  0
   -2.2411   -1.3427   -0.4300 C   0  0  0  0  0  0  0  0  0  0  0  0
   -1.0344   -1.0567   -1.0682 C   0  0  0  0  0  0  0  0  0  0  0  0
   -2.9351   -2.6065   -0.6122 C   0  0  0  0  0  0  0  0  0  0  0  0
   -4.0905   -2.8192    0.0253 C   0  0  0  0  0  0  0  0  0  0  0  0
   -4.6993   -1.8148    0.9154 C   0  0  0  0  0  0  0  0  0  0  0  0
   -5.7610   -2.0418    1.4831 O   0  0  0  0  0  0  0  0  0  0  0  0
   -4.0141   -0.6171    1.0714 O   0  0  0  0  0  0  0  0  0  0  0  0
   -0.2876    2.3169    0.1353 O   0  0  0  0  0  0  0  0  0  0  0  0
   -0.7489    3.2183    1.1382 C   0  0  0  0  0  0  0  0  0  0  0  0
    1.4185    1.7336   -1.7200 O   0  0  0  0  0  0  0  0  0  0  0  0
    3.2112   -0.3097   -2.1066 O   0  0  0  0  0  0  0  0  0  0  0  0
    3.8853   -1.1987    0.3165 O   0  0  0  0  0  0  0  0  0  0  0  0
    1.3949   -1.7998    1.1585 H   0  0  0  0  0  0  0  0  0  0  0  0
    2.3562   -0.9086    2.3211 H   0  0  0  0  0  0  0  0  0  0  0  0
    0.9747   -0.1188    1.5595 H   0  0  0  0  0  0  0  0  0  0  0  0
    3.7987    1.0894    1.5031 H   0  0  0  0  0  0  0  0  0  0  0  0
    2.4242    1.8006    0.6477 H   0  0  0  0  0  0  0  0  0  0  0  0
    3.9369    1.4222   -0.2092 H   0  0  0  0  0  0  0  0  0  0  0  0
    1.8426   -1.5691   -1.2820 H   0  0  0  0  0  0  0  0  0  0  0  0
    0.7291    0.1257   -2.6587 H   0  0  0  0  0  0  0  0  0  0  0  0
   -2.6708    1.5560    1.2770 H   0  0  0  0  0  0  0  0  0  0  0  0
   -0.5955   -1.7997   -1.7338 H   0  0  0  0  0  0  0  0  0  0  0  0
   -2.5063   -3.3612   -1.2624 H   0  0  0  0  0  0  0  0  0  0  0  0
   -4.6399   -3.7467   -0.0819 H   0  0  0  0  0  0  0  0  0  0  0  0
   -0.0431    4.0532    1.1838 H   0  0  0  0  0  0  0  0  0  0  0  0
   -1.7303    3.6258    0.8756 H   0  0  0  0  0  0  0  0  0  0  0  0
   -0.7650    2.7412    2.1237 H   0  0  0  0  0  0  0  0  0  0  0  0
    0.7752    2.3043   -1.2578 H   0  0  0  0  0  0  0  0  0  0  0  0
    3.1868    0.6494   -2.3121 H   0  0  0  0  0  0  0  0  0  0  0  0
    4.3101   -1.1131   -0.5627 H   0  0  0  0  0  0  0  0  0  0  0  0
  1  2  1  0
  2  3  1  0
  2  4  1  0
  4  5  1  0
  5  6  1  0
  6  7  2  0
  7  8  1  0
  8  9  2  0
  9 10  1  0
 10 11  2  0
 10 12  1  0
 12 13  2  0
 13 14  1  0
 14 15  2  0
 14 16  1  0
  7 17  1  0
 17 18  1  0
  5 19  1  0
  4 20  1  0
  2 21  1  0
 11  6  1  0
 16  9  1  0
  1 22  1  0
  1 23  1  0
  1 24  1  0
  3 25  1  0
  3 26  1  0
  3 27  1  0
  4 28  1  0
  5 29  1  0
  8 30  1  0
 11 31  1  0
 12 32  1  0
 13 33  1  0
 18 34  1  0
 18 35  1  0
 18 36  1  0
 19 37  1  0
 20 38  1  0
 21 39  1  0
M  END
>  <Name>  (128) 
Angelitriol

>  <PubChem ID>  (128) 
10017318

>  <CDB ID>  (128) 
CDB0128

>  <Smiles>  (128) 
CC(C)(C(C(C1=C(C=C2C(=C1)C=CC(=O)O2)OC)O)O)O

>  <Chemical class>  (128) 
7-Oxygenated Coumarins

>  <Natural source>  (128) 
Angelica pubescens

>  <Molecular Formula>  (128) 
C15H18O6

>  <InChI-Key>  (128) 
PCSZTTAMZGNQNB-UHFFFAOYSA-N

>  <Total Molweight>  (128) 
294.302

>  <cLogP>  (128) 
0.3626

>  <cLogS>  (128) 
-2.194

>  <H-Acceptors>  (128) 
6

>  <H-Donors>  (128) 
3

>  <Rotatable Bonds>  (128) 
4

>  <Polar Surface Area>  (128) 
96.22

$$$$
CDB0129
     RDKit          3D

 53 54  0  0  0  0  0  0  0  0999 V2000
   -5.5788    2.5380   -0.9620 C   0  0  0  0  0  0  0  0  0  0  0  0
   -4.1954    1.9065   -0.9126 C   0  0  0  0  0  0  0  0  0  0  0  0
   -4.2265    0.3764   -1.0287 C   0  0  0  0  0  0  0  0  0  0  0  0
   -4.8771   -0.3100    0.1697 C   0  0  0  0  0  0  0  0  0  0  0  0
   -2.8226   -0.1606   -1.2276 C   0  0  0  0  0  0  0  0  0  0  0  0
   -2.4632   -0.7892   -2.2159 O   0  0  0  0  0  0  0  0  0  0  0  0
   -2.0236    0.1350   -0.1654 O   0  0  0  0  0  0  0  0  0  0  0  0
   -0.6472   -0.3665   -0.2246 C   0  0  0  0  0  0  0  0  0  0  0  0
    0.2003    0.7402    0.4647 C   0  0  0  0  0  0  0  0  0  0  0  0
    1.7076    0.5573    0.4579 C   0  0  0  0  0  0  0  0  0  0  0  0
    2.4301    0.6033   -0.7561 C   0  0  0  0  0  0  0  0  0  0  0  0
    3.8168    0.4319   -0.7492 C   0  0  0  0  0  0  0  0  0  0  0  0
    4.4767    0.2276    0.4610 C   0  0  0  0  0  0  0  0  0  0  0  0
    3.7960    0.1926    1.6712 C   0  0  0  0  0  0  0  0  0  0  0  0
    2.4118    0.3615    1.6660 C   0  0  0  0  0  0  0  0  0  0  0  0
    4.5454   -0.0181    2.8983 C   0  0  0  0  0  0  0  0  0  0  0  0
    5.8713   -0.1751    2.8401 C   0  0  0  0  0  0  0  0  0  0  0  0
    6.6156   -0.1433    1.5687 C   0  0  0  0  0  0  0  0  0  0  0  0
    7.8319   -0.2920    1.5512 O   0  0  0  0  0  0  0  0  0  0  0  0
    5.8755    0.0605    0.4117 O   0  0  0  0  0  0  0  0  0  0  0  0
    1.6845    0.8291   -1.8835 O   0  0  0  0  0  0  0  0  0  0  0  0
    2.3692    0.8655   -3.1309 C   0  0  0  0  0  0  0  0  0  0  0  0
   -0.2830    0.9810    1.7959 O   0  0  0  0  0  0  0  0  0  0  0  0
   -0.6178   -1.8163    0.3669 C   0  0  0  0  0  0  0  0  0  0  0  0
    0.7170   -2.5292    0.1341 C   0  0  0  0  0  0  0  0  0  0  0  0
   -0.9980   -1.8927    1.8470 C   0  0  0  0  0  0  0  0  0  0  0  0
   -1.6026   -2.6280   -0.3144 O   0  0  0  0  0  0  0  0  0  0  0  0
   -5.4938    3.6294   -0.9513 H   0  0  0  0  0  0  0  0  0  0  0  0
   -6.1842    2.2440   -0.0996 H   0  0  0  0  0  0  0  0  0  0  0  0
   -6.1105    2.2491   -1.8740 H   0  0  0  0  0  0  0  0  0  0  0  0
   -3.5940    2.3198   -1.7324 H   0  0  0  0  0  0  0  0  0  0  0  0
   -3.6972    2.2098    0.0166 H   0  0  0  0  0  0  0  0  0  0  0  0
   -4.7924    0.1026   -1.9288 H   0  0  0  0  0  0  0  0  0  0  0  0
   -5.9464   -0.0840    0.2226 H   0  0  0  0  0  0  0  0  0  0  0  0
   -4.4160    0.0058    1.1119 H   0  0  0  0  0  0  0  0  0  0  0  0
   -4.7698   -1.3983    0.1003 H   0  0  0  0  0  0  0  0  0  0  0  0
   -0.3495   -0.4236   -1.2778 H   0  0  0  0  0  0  0  0  0  0  0  0
   -0.0012    1.6862   -0.0571 H   0  0  0  0  0  0  0  0  0  0  0  0
    4.4096    0.4568   -1.6566 H   0  0  0  0  0  0  0  0  0  0  0  0
    1.8660    0.3392    2.6081 H   0  0  0  0  0  0  0  0  0  0  0  0
    4.0163   -0.0435    3.8447 H   0  0  0  0  0  0  0  0  0  0  0  0
    6.4672   -0.3337    3.7305 H   0  0  0  0  0  0  0  0  0  0  0  0
    1.6255    1.0430   -3.9137 H   0  0  0  0  0  0  0  0  0  0  0  0
    3.0885    1.6903   -3.1616 H   0  0  0  0  0  0  0  0  0  0  0  0
    2.8532   -0.0934   -3.3430 H   0  0  0  0  0  0  0  0  0  0  0  0
   -1.2478    1.0942    1.7070 H   0  0  0  0  0  0  0  0  0  0  0  0
    1.5155   -2.1504    0.7737 H   0  0  0  0  0  0  0  0  0  0  0  0
    1.0297   -2.4403   -0.9123 H   0  0  0  0  0  0  0  0  0  0  0  0
    0.6214   -3.6037    0.3328 H   0  0  0  0  0  0  0  0  0  0  0  0
   -1.9595   -1.4023    2.0343 H   0  0  0  0  0  0  0  0  0  0  0  0
   -1.1236   -2.9360    2.1612 H   0  0  0  0  0  0  0  0  0  0  0  0
   -0.2395   -1.4422    2.4930 H   0  0  0  0  0  0  0  0  0  0  0  0
   -1.5814   -2.4040   -1.2670 H   0  0  0  0  0  0  0  0  0  0  0  0
  1  2  1  0
  2  3  1  0
  3  4  1  0
  3  5  1  0
  5  6  2  0
  5  7  1  0
  7  8  1  0
  8  9  1  0
  9 10  1  0
 10 11  2  0
 11 12  1  0
 12 13  2  0
 13 14  1  0
 14 15  2  0
 14 16  1  0
 16 17  2  0
 17 18  1  0
 18 19  2  0
 18 20  1  0
 11 21  1  0
 21 22  1  0
  9 23  1  0
  8 24  1  0
 24 25  1  0
 24 26  1  0
 24 27  1  0
 15 10  1  0
 20 13  1  0
  1 28  1  0
  1 29  1  0
  1 30  1  0
  2 31  1  0
  2 32  1  0
  3 33  1  0
  4 34  1  0
  4 35  1  0
  4 36  1  0
  8 37  1  0
  9 38  1  0
 12 39  1  0
 15 40  1  0
 16 41  1  0
 17 42  1  0
 22 43  1  0
 22 44  1  0
 22 45  1  0
 23 46  1  0
 25 47  1  0
 25 48  1  0
 25 49  1  0
 26 50  1  0
 26 51  1  0
 26 52  1  0
 27 53  1  0
M  END
>  <Name>  (129) 
Angelol C

>  <PubChem ID>  (129) 
23259941

>  <CDB ID>  (129) 
CDB0129

>  <Smiles>  (129) 
CCC(C)C(=O)OC(C(C1=C(C=C2C(=C1)C=CC(=O)O2)OC)O)C(C)(C)O

>  <Chemical class>  (129) 
7-Oxygenated Coumarins

>  <Natural source>  (129) 
Angelica pubescens

>  <Molecular Formula>  (129) 
C20H26O7

>  <InChI-Key>  (129) 
LEQFGQJFFOQFOZ-UHFFFAOYSA-N

>  <Total Molweight>  (129) 
378.419

>  <cLogP>  (129) 
1.9743

>  <cLogS>  (129) 
-3.304

>  <H-Acceptors>  (129) 
7

>  <H-Donors>  (129) 
2

>  <Rotatable Bonds>  (129) 
8

>  <Polar Surface Area>  (129) 
102.29

$$$$
CDB0130
     RDKit          3D

 51 52  0  0  0  0  0  0  0  0999 V2000
   -2.3022    1.3079    2.2896 C   0  0  0  0  0  0  0  0  0  0  0  0
   -2.8419    2.3981    1.4199 C   0  0  0  0  0  0  0  0  0  0  0  0
   -3.1503    2.3212    0.1109 C   0  0  0  0  0  0  0  0  0  0  0  0
   -3.7973    3.4502   -0.6340 C   0  0  0  0  0  0  0  0  0  0  0  0
   -2.9021    1.1147   -0.7190 C   0  0  0  0  0  0  0  0  0  0  0  0
   -3.7148    0.6544   -1.5068 O   0  0  0  0  0  0  0  0  0  0  0  0
   -1.6187    0.6972   -0.5696 O   0  0  0  0  0  0  0  0  0  0  0  0
   -1.1823   -0.3718   -1.4596 C   0  0  0  0  0  0  0  0  0  0  0  0
    0.2985   -0.1026   -1.8571 C   0  0  0  0  0  0  0  0  0  0  0  0
    1.3512   -0.1148   -0.7607 C   0  0  0  0  0  0  0  0  0  0  0  0
    2.3687   -1.0970   -0.7361 C   0  0  0  0  0  0  0  0  0  0  0  0
    3.3283   -1.0825    0.2808 C   0  0  0  0  0  0  0  0  0  0  0  0
    3.2777   -0.0933    1.2603 C   0  0  0  0  0  0  0  0  0  0  0  0
    2.2973    0.8896    1.2582 C   0  0  0  0  0  0  0  0  0  0  0  0
    1.3391    0.8777    0.2449 C   0  0  0  0  0  0  0  0  0  0  0  0
    2.3024    1.8961    2.3066 C   0  0  0  0  0  0  0  0  0  0  0  0
    3.2459    1.8544    3.2523 C   0  0  0  0  0  0  0  0  0  0  0  0
    4.2940    0.8189    3.2781 C   0  0  0  0  0  0  0  0  0  0  0  0
    5.1419    0.8092    4.1629 O   0  0  0  0  0  0  0  0  0  0  0  0
    4.2669   -0.1283    2.2636 O   0  0  0  0  0  0  0  0  0  0  0  0
    2.3202   -2.0406   -1.7291 O   0  0  0  0  0  0  0  0  0  0  0  0
    3.3948   -2.9697   -1.8107 C   0  0  0  0  0  0  0  0  0  0  0  0
    0.3771    1.1909   -2.4928 O   0  0  0  0  0  0  0  0  0  0  0  0
   -1.5388   -1.7765   -0.8807 C   0  0  0  0  0  0  0  0  0  0  0  0
   -1.2417   -2.8886   -1.8912 C   0  0  0  0  0  0  0  0  0  0  0  0
   -0.8794   -2.1040    0.4598 C   0  0  0  0  0  0  0  0  0  0  0  0
   -2.9568   -1.8496   -0.6199 O   0  0  0  0  0  0  0  0  0  0  0  0
   -2.4826    0.3135    1.8759 H   0  0  0  0  0  0  0  0  0  0  0  0
   -2.8003    1.3400    3.2643 H   0  0  0  0  0  0  0  0  0  0  0  0
   -1.2296    1.4460    2.4511 H   0  0  0  0  0  0  0  0  0  0  0  0
   -3.0454    3.3304    1.9450 H   0  0  0  0  0  0  0  0  0  0  0  0
   -3.9186    4.3396   -0.0065 H   0  0  0  0  0  0  0  0  0  0  0  0
   -4.7905    3.1579   -0.9905 H   0  0  0  0  0  0  0  0  0  0  0  0
   -3.1877    3.7362   -1.4977 H   0  0  0  0  0  0  0  0  0  0  0  0
   -1.7467   -0.2505   -2.3961 H   0  0  0  0  0  0  0  0  0  0  0  0
    0.5670   -0.8087   -2.6479 H   0  0  0  0  0  0  0  0  0  0  0  0
    4.1177   -1.8229    0.3436 H   0  0  0  0  0  0  0  0  0  0  0  0
    0.5767    1.6527    0.2297 H   0  0  0  0  0  0  0  0  0  0  0  0
    1.5408    2.6679    2.3059 H   0  0  0  0  0  0  0  0  0  0  0  0
    3.2872    2.5848    4.0511 H   0  0  0  0  0  0  0  0  0  0  0  0
    4.3536   -2.4575   -1.9423 H   0  0  0  0  0  0  0  0  0  0  0  0
    3.2277   -3.5951   -2.6929 H   0  0  0  0  0  0  0  0  0  0  0  0
    3.4113   -3.6274   -0.9357 H   0  0  0  0  0  0  0  0  0  0  0  0
   -0.2147    1.7823   -1.9970 H   0  0  0  0  0  0  0  0  0  0  0  0
   -1.6130   -3.8541   -1.5276 H   0  0  0  0  0  0  0  0  0  0  0  0
   -1.7582   -2.6994   -2.8391 H   0  0  0  0  0  0  0  0  0  0  0  0
   -0.1729   -2.9916   -2.0937 H   0  0  0  0  0  0  0  0  0  0  0  0
   -1.3694   -2.9642    0.9323 H   0  0  0  0  0  0  0  0  0  0  0  0
    0.1775   -2.3546    0.3565 H   0  0  0  0  0  0  0  0  0  0  0  0
   -0.9738   -1.2749    1.1662 H   0  0  0  0  0  0  0  0  0  0  0  0
   -3.4337   -1.3114   -1.2843 H   0  0  0  0  0  0  0  0  0  0  0  0
  1  2  1  0
  2  3  2  3
  3  4  1  0
  3  5  1  0
  5  6  2  0
  5  7  1  0
  7  8  1  0
  8  9  1  0
  9 10  1  0
 10 11  2  0
 11 12  1  0
 12 13  2  0
 13 14  1  0
 14 15  2  0
 14 16  1  0
 16 17  2  0
 17 18  1  0
 18 19  2  0
 18 20  1  0
 11 21  1  0
 21 22  1  0
  9 23  1  0
  8 24  1  0
 24 25  1  0
 24 26  1  0
 24 27  1  0
 15 10  1  0
 20 13  1  0
  1 28  1  0
  1 29  1  0
  1 30  1  0
  2 31  1  0
  4 32  1  0
  4 33  1  0
  4 34  1  0
  8 35  1  0
  9 36  1  0
 12 37  1  0
 15 38  1  0
 16 39  1  0
 17 40  1  0
 22 41  1  0
 22 42  1  0
 22 43  1  0
 23 44  1  0
 25 45  1  0
 25 46  1  0
 25 47  1  0
 26 48  1  0
 26 49  1  0
 26 50  1  0
 27 51  1  0
M  END
>  <Name>  (130) 
Angelol B

>  <PubChem ID>  (130) 
10022392

>  <CDB ID>  (130) 
CDB0130

>  <Smiles>  (130) 
CC=C(C)C(=O)OC(C(C1=C(C=C2C(=C1)C=CC(=O)O2)OC)O)C(C)(C)O

>  <Chemical class>  (130) 
7-Oxygenated Coumarins

>  <Natural source>  (130) 
Angelica pubescens

>  <Molecular Formula>  (130) 
C20H24O7

>  <InChI-Key>  (130) 
GFMYIOGFYYHKLA-UHFFFAOYSA-N

>  <Total Molweight>  (130) 
376.404

>  <cLogP>  (130) 
2.1102

>  <cLogS>  (130) 
-3.04

>  <H-Acceptors>  (130) 
7

>  <H-Donors>  (130) 
2

>  <Rotatable Bonds>  (130) 
7

>  <Polar Surface Area>  (130) 
102.29

$$$$
CDB0131
     RDKit          3D

 51 52  0  0  0  0  0  0  0  0999 V2000
   -2.3022    1.3079    2.2896 C   0  0  0  0  0  0  0  0  0  0  0  0
   -2.8419    2.3981    1.4199 C   0  0  0  0  0  0  0  0  0  0  0  0
   -3.1503    2.3212    0.1109 C   0  0  0  0  0  0  0  0  0  0  0  0
   -3.7973    3.4502   -0.6340 C   0  0  0  0  0  0  0  0  0  0  0  0
   -2.9021    1.1147   -0.7190 C   0  0  0  0  0  0  0  0  0  0  0  0
   -3.7148    0.6544   -1.5068 O   0  0  0  0  0  0  0  0  0  0  0  0
   -1.6187    0.6972   -0.5696 O   0  0  0  0  0  0  0  0  0  0  0  0
   -1.1823   -0.3718   -1.4596 C   0  0  0  0  0  0  0  0  0  0  0  0
    0.2985   -0.1026   -1.8571 C   0  0  0  0  0  0  0  0  0  0  0  0
    1.3512   -0.1148   -0.7607 C   0  0  0  0  0  0  0  0  0  0  0  0
    2.3687   -1.0970   -0.7361 C   0  0  0  0  0  0  0  0  0  0  0  0
    3.3283   -1.0825    0.2808 C   0  0  0  0  0  0  0  0  0  0  0  0
    3.2777   -0.0933    1.2603 C   0  0  0  0  0  0  0  0  0  0  0  0
    2.2973    0.8896    1.2582 C   0  0  0  0  0  0  0  0  0  0  0  0
    1.3391    0.8777    0.2449 C   0  0  0  0  0  0  0  0  0  0  0  0
    2.3024    1.8961    2.3066 C   0  0  0  0  0  0  0  0  0  0  0  0
    3.2459    1.8544    3.2523 C   0  0  0  0  0  0  0  0  0  0  0  0
    4.2940    0.8189    3.2781 C   0  0  0  0  0  0  0  0  0  0  0  0
    5.1419    0.8092    4.1629 O   0  0  0  0  0  0  0  0  0  0  0  0
    4.2669   -0.1283    2.2636 O   0  0  0  0  0  0  0  0  0  0  0  0
    2.3202   -2.0406   -1.7291 O   0  0  0  0  0  0  0  0  0  0  0  0
    3.3948   -2.9697   -1.8107 C   0  0  0  0  0  0  0  0  0  0  0  0
    0.3771    1.1909   -2.4928 O   0  0  0  0  0  0  0  0  0  0  0  0
   -1.5388   -1.7765   -0.8807 C   0  0  0  0  0  0  0  0  0  0  0  0
   -1.2417   -2.8886   -1.8912 C   0  0  0  0  0  0  0  0  0  0  0  0
   -0.8794   -2.1040    0.4598 C   0  0  0  0  0  0  0  0  0  0  0  0
   -2.9568   -1.8496   -0.6199 O   0  0  0  0  0  0  0  0  0  0  0  0
   -2.4826    0.3135    1.8759 H   0  0  0  0  0  0  0  0  0  0  0  0
   -2.8003    1.3400    3.2643 H   0  0  0  0  0  0  0  0  0  0  0  0
   -1.2296    1.4460    2.4511 H   0  0  0  0  0  0  0  0  0  0  0  0
   -3.0454    3.3304    1.9450 H   0  0  0  0  0  0  0  0  0  0  0  0
   -3.9186    4.3396   -0.0065 H   0  0  0  0  0  0  0  0  0  0  0  0
   -4.7905    3.1579   -0.9905 H   0  0  0  0  0  0  0  0  0  0  0  0
   -3.1877    3.7362   -1.4977 H   0  0  0  0  0  0  0  0  0  0  0  0
   -1.7467   -0.2505   -2.3961 H   0  0  0  0  0  0  0  0  0  0  0  0
    0.5670   -0.8087   -2.6479 H   0  0  0  0  0  0  0  0  0  0  0  0
    4.1177   -1.8229    0.3436 H   0  0  0  0  0  0  0  0  0  0  0  0
    0.5767    1.6527    0.2297 H   0  0  0  0  0  0  0  0  0  0  0  0
    1.5408    2.6679    2.3059 H   0  0  0  0  0  0  0  0  0  0  0  0
    3.2872    2.5848    4.0511 H   0  0  0  0  0  0  0  0  0  0  0  0
    4.3536   -2.4575   -1.9423 H   0  0  0  0  0  0  0  0  0  0  0  0
    3.2277   -3.5951   -2.6929 H   0  0  0  0  0  0  0  0  0  0  0  0
    3.4113   -3.6274   -0.9357 H   0  0  0  0  0  0  0  0  0  0  0  0
   -0.2147    1.7823   -1.9970 H   0  0  0  0  0  0  0  0  0  0  0  0
   -1.6130   -3.8541   -1.5276 H   0  0  0  0  0  0  0  0  0  0  0  0
   -1.7582   -2.6994   -2.8391 H   0  0  0  0  0  0  0  0  0  0  0  0
   -0.1729   -2.9916   -2.0937 H   0  0  0  0  0  0  0  0  0  0  0  0
   -1.3694   -2.9642    0.9323 H   0  0  0  0  0  0  0  0  0  0  0  0
    0.1775   -2.3546    0.3565 H   0  0  0  0  0  0  0  0  0  0  0  0
   -0.9738   -1.2749    1.1662 H   0  0  0  0  0  0  0  0  0  0  0  0
   -3.4337   -1.3114   -1.2843 H   0  0  0  0  0  0  0  0  0  0  0  0
  1  2  1  0
  2  3  2  3
  3  4  1  0
  3  5  1  0
  5  6  2  0
  5  7  1  0
  7  8  1  0
  8  9  1  0
  9 10  1  0
 10 11  2  0
 11 12  1  0
 12 13  2  0
 13 14  1  0
 14 15  2  0
 14 16  1  0
 16 17  2  0
 17 18  1  0
 18 19  2  0
 18 20  1  0
 11 21  1  0
 21 22  1  0
  9 23  1  0
  8 24  1  0
 24 25  1  0
 24 26  1  0
 24 27  1  0
 15 10  1  0
 20 13  1  0
  1 28  1  0
  1 29  1  0
  1 30  1  0
  2 31  1  0
  4 32  1  0
  4 33  1  0
  4 34  1  0
  8 35  1  0
  9 36  1  0
 12 37  1  0
 15 38  1  0
 16 39  1  0
 17 40  1  0
 22 41  1  0
 22 42  1  0
 22 43  1  0
 23 44  1  0
 25 45  1  0
 25 46  1  0
 25 47  1  0
 26 48  1  0
 26 49  1  0
 26 50  1  0
 27 51  1  0
M  END
>  <Name>  (131) 
Angelol (Angelol A)

>  <PubChem ID>  (131) 
21669994

>  <CDB ID>  (131) 
CDB0131

>  <Smiles>  (131) 
CC=C(C)C(=O)OC(C(C1=C(C=C2C(=C1)C=CC(=O)O2)OC)O)C(C)(C)O

>  <Chemical class>  (131) 
7-Oxygenated Coumarins

>  <Natural source>  (131) 
Angelica pubescens

>  <Molecular Formula>  (131) 
C20H24O7

>  <InChI-Key>  (131) 
GFMYIOGFYYHKLA-UHFFFAOYSA-N

>  <Total Molweight>  (131) 
376.404

>  <cLogP>  (131) 
2.1102

>  <cLogS>  (131) 
-3.04

>  <H-Acceptors>  (131) 
7

>  <H-Donors>  (131) 
2

>  <Rotatable Bonds>  (131) 
7

>  <Polar Surface Area>  (131) 
102.29

$$$$
CDB0132
     RDKit          3D

 72 74  0  0  0  0  0  0  0  0999 V2000
   -2.7870   -7.1802    0.1994 C   0  0  0  0  0  0  0  0  0  0  0  0
   -2.4634   -5.7427    0.4520 C   0  0  0  0  0  0  0  0  0  0  0  0
   -2.0331   -4.8215   -0.4341 C   0  0  0  0  0  0  0  0  0  0  0  0
   -1.8146   -5.0445   -1.9011 C   0  0  0  0  0  0  0  0  0  0  0  0
   -1.7752   -3.4480    0.1031 C   0  0  0  0  0  0  0  0  0  0  0  0
   -2.0736   -3.0733    1.2264 O   0  0  0  0  0  0  0  0  0  0  0  0
   -1.1577   -2.6941   -0.8369 O   0  0  0  0  0  0  0  0  0  0  0  0
   -0.8550   -1.3086   -0.4841 C   0  0  0  0  0  0  0  0  0  0  0  0
   -2.1579   -0.4748   -0.6798 C   0  0  0  0  0  0  0  0  0  0  0  0
   -2.0975    0.9905   -0.2777 C   0  0  0  0  0  0  0  0  0  0  0  0
   -2.1085    1.3534    1.0872 C   0  0  0  0  0  0  0  0  0  0  0  0
   -2.1089    2.7016    1.4527 C   0  0  0  0  0  0  0  0  0  0  0  0
   -2.0775    3.6797    0.4611 C   0  0  0  0  0  0  0  0  0  0  0  0
   -2.0418    3.3536   -0.8893 C   0  0  0  0  0  0  0  0  0  0  0  0
   -2.0519    2.0073   -1.2551 C   0  0  0  0  0  0  0  0  0  0  0  0
   -1.9842    4.4219   -1.8726 C   0  0  0  0  0  0  0  0  0  0  0  0
   -1.9727    5.6936   -1.4619 C   0  0  0  0  0  0  0  0  0  0  0  0
   -2.0186    6.0644   -0.0366 C   0  0  0  0  0  0  0  0  0  0  0  0
   -2.0116    7.2411    0.3054 O   0  0  0  0  0  0  0  0  0  0  0  0
   -2.0672    5.0244    0.8821 O   0  0  0  0  0  0  0  0  0  0  0  0
   -2.1277    0.3125    1.9759 O   0  0  0  0  0  0  0  0  0  0  0  0
   -1.9183    0.6166    3.3500 C   0  0  0  0  0  0  0  0  0  0  0  0
   -2.6654   -0.6150   -2.0176 O   0  0  0  0  0  0  0  0  0  0  0  0
    0.4250   -0.8921   -1.2933 C   0  0  0  0  0  0  0  0  0  0  0  0
    1.5188   -1.9728   -1.1221 C   0  0  0  0  0  0  0  0  0  0  0  0
    0.1491   -0.8106   -2.8069 C   0  0  0  0  0  0  0  0  0  0  0  0
    0.9344    0.4156   -0.9526 O   0  0  0  0  0  0  0  0  0  0  0  0
    1.4679    0.6250    0.3636 C   0  0  0  0  0  0  0  0  0  0  0  0
    1.5259    2.1654    0.5863 C   0  0  0  0  0  0  0  0  0  0  0  0
    2.8323    2.7355    0.0102 C   0  0  0  0  0  0  0  0  0  0  0  0
    4.0621    2.0521    0.6349 C   0  0  0  0  0  0  0  0  0  0  0  0
    3.6927    0.6895    1.2544 C   0  0  0  0  0  0  0  0  0  0  0  0
    2.7581    0.0042    0.4290 O   0  0  0  0  0  0  0  0  0  0  0  0
    4.9438   -0.1841    1.4161 C   0  0  0  0  0  0  0  0  0  0  0  0
    5.9257    0.4828    2.2069 O   0  0  0  0  0  0  0  0  0  0  0  0
    4.6293    2.8995    1.6442 O   0  0  0  0  0  0  0  0  0  0  0  0
    2.8552    2.6052   -1.4199 O   0  0  0  0  0  0  0  0  0  0  0  0
    1.4041    2.4687    1.9851 O   0  0  0  0  0  0  0  0  0  0  0  0
   -2.2164   -7.8093    0.8904 H   0  0  0  0  0  0  0  0  0  0  0  0
   -2.5532   -7.5127   -0.8134 H   0  0  0  0  0  0  0  0  0  0  0  0
   -3.8517   -7.3568    0.3803 H   0  0  0  0  0  0  0  0  0  0  0  0
   -2.5985   -5.4452    1.4935 H   0  0  0  0  0  0  0  0  0  0  0  0
   -2.1638   -6.0206   -2.2448 H   0  0  0  0  0  0  0  0  0  0  0  0
   -2.3585   -4.2961   -2.4881 H   0  0  0  0  0  0  0  0  0  0  0  0
   -0.7493   -4.9717   -2.1440 H   0  0  0  0  0  0  0  0  0  0  0  0
   -0.5866   -1.2820    0.5776 H   0  0  0  0  0  0  0  0  0  0  0  0
   -2.9427   -0.9392   -0.0689 H   0  0  0  0  0  0  0  0  0  0  0  0
   -2.1287    3.0195    2.4892 H   0  0  0  0  0  0  0  0  0  0  0  0
   -2.0178    1.7407   -2.3098 H   0  0  0  0  0  0  0  0  0  0  0  0
   -1.9448    4.1714   -2.9271 H   0  0  0  0  0  0  0  0  0  0  0  0
   -1.9265    6.5192   -2.1617 H   0  0  0  0  0  0  0  0  0  0  0  0
   -1.8602   -0.3302    3.8955 H   0  0  0  0  0  0  0  0  0  0  0  0
   -0.9719    1.1466    3.5003 H   0  0  0  0  0  0  0  0  0  0  0  0
   -2.7607    1.1847    3.7573 H   0  0  0  0  0  0  0  0  0  0  0  0
   -3.5587   -0.2288   -2.0089 H   0  0  0  0  0  0  0  0  0  0  0  0
    1.6926   -2.1985   -0.0644 H   0  0  0  0  0  0  0  0  0  0  0  0
    2.4719   -1.6404   -1.5490 H   0  0  0  0  0  0  0  0  0  0  0  0
    1.2456   -2.9135   -1.6130 H   0  0  0  0  0  0  0  0  0  0  0  0
   -0.4799    0.0479   -3.0578 H   0  0  0  0  0  0  0  0  0  0  0  0
    1.0838   -0.6516   -3.3593 H   0  0  0  0  0  0  0  0  0  0  0  0
   -0.3189   -1.7219   -3.1926 H   0  0  0  0  0  0  0  0  0  0  0  0
    0.8293    0.1722    1.1265 H   0  0  0  0  0  0  0  0  0  0  0  0
    0.6804    2.6367    0.0799 H   0  0  0  0  0  0  0  0  0  0  0  0
    2.8773    3.8108    0.2189 H   0  0  0  0  0  0  0  0  0  0  0  0
    4.8247    1.9222   -0.1429 H   0  0  0  0  0  0  0  0  0  0  0  0
    3.2745    0.8267    2.2603 H   0  0  0  0  0  0  0  0  0  0  0  0
    5.3790   -0.4268    0.4402 H   0  0  0  0  0  0  0  0  0  0  0  0
    4.6798   -1.1306    1.9006 H   0  0  0  0  0  0  0  0  0  0  0  0
    6.6582   -0.1488    2.3296 H   0  0  0  0  0  0  0  0  0  0  0  0
    5.3443    2.3716    2.0619 H   0  0  0  0  0  0  0  0  0  0  0  0
    2.5254    1.7126   -1.6479 H   0  0  0  0  0  0  0  0  0  0  0  0
    1.6674    3.4000    2.1075 H   0  0  0  0  0  0  0  0  0  0  0  0
  1  2  1  0
  2  3  2  3
  3  4  1  0
  3  5  1  0
  5  6  2  0
  5  7  1  0
  7  8  1  0
  8  9  1  0
  9 10  1  0
 10 11  2  0
 11 12  1  0
 12 13  2  0
 13 14  1  0
 14 15  2  0
 14 16  1  0
 16 17  2  0
 17 18  1  0
 18 19  2  0
 18 20  1  0
 11 21  1  0
 21 22  1  0
  9 23  1  0
  8 24  1  0
 24 25  1  0
 24 26  1  0
 24 27  1  0
 27 28  1  0
 28 29  1  0
 29 30  1  0
 30 31  1  0
 31 32  1  0
 32 33  1  0
 32 34  1  0
 34 35  1  0
 31 36  1  0
 30 37  1  0
 29 38  1  0
 15 10  1  0
 20 13  1  0
 33 28  1  0
  1 39  1  0
  1 40  1  0
  1 41  1  0
  2 42  1  0
  4 43  1  0
  4 44  1  0
  4 45  1  0
  8 46  1  0
  9 47  1  0
 12 48  1  0
 15 49  1  0
 16 50  1  0
 17 51  1  0
 22 52  1  0
 22 53  1  0
 22 54  1  0
 23 55  1  0
 25 56  1  0
 25 57  1  0
 25 58  1  0
 26 59  1  0
 26 60  1  0
 26 61  1  0
 28 62  1  0
 29 63  1  0
 30 64  1  0
 31 65  1  0
 32 66  1  0
 34 67  1  0
 34 68  1  0
 35 69  1  0
 36 70  1  0
 37 71  1  0
 38 72  1  0
M  END
>  <Name>  (132) 
Angeloside A

>  <PubChem ID>  (132) 
44202793

>  <CDB ID>  (132) 
CDB0132

>  <Smiles>  (132) 
CC=C(C)C(=O)OC(C(C1=C(C=C2C(=C1)C=CC(=O)O2)OC)O)C(C)(C)OC3C(C(C(C(O3)CO)O)O)O

>  <Chemical class>  (132) 
7-Oxygenated Coumarins

>  <Natural source>  (132) 
Coelopleurum gmelinii

>  <Molecular Formula>  (132) 
C26H34O12

>  <InChI-Key>  (132) 
JQRINLSNXYJBIC-UHFFFAOYSA-N

>  <Total Molweight>  (132) 
538.544

>  <cLogP>  (132) 
0.2731

>  <cLogS>  (132) 
-2.74

>  <H-Acceptors>  (132) 
12

>  <H-Donors>  (132) 
5

>  <Rotatable Bonds>  (132) 
10

>  <Polar Surface Area>  (132) 
181.44

$$$$
CDB0133
     RDKit          3D

 51 52  0  0  0  0  0  0  0  0999 V2000
   -3.8805   -3.2394   -2.1319 C   0  0  0  0  0  0  0  0  0  0  0  0
   -3.1361   -2.2865   -1.2510 C   0  0  0  0  0  0  0  0  0  0  0  0
   -3.5609   -1.7110   -0.1067 C   0  0  0  0  0  0  0  0  0  0  0  0
   -4.9099   -1.9066    0.5246 C   0  0  0  0  0  0  0  0  0  0  0  0
   -2.6772   -0.7799    0.6674 C   0  0  0  0  0  0  0  0  0  0  0  0
   -2.9937   -0.2966    1.7447 O   0  0  0  0  0  0  0  0  0  0  0  0
   -1.5103   -0.5424    0.0234 O   0  0  0  0  0  0  0  0  0  0  0  0
   -0.5927    0.3700    0.6735 C   0  0  0  0  0  0  0  0  0  0  0  0
    0.8111   -0.0675    0.2687 C   0  0  0  0  0  0  0  0  0  0  0  0
    1.2256   -0.2028   -1.0763 C   0  0  0  0  0  0  0  0  0  0  0  0
    2.5330   -0.6092   -1.3620 C   0  0  0  0  0  0  0  0  0  0  0  0
    3.4124   -0.8924   -0.3191 C   0  0  0  0  0  0  0  0  0  0  0  0
    3.0289   -0.7889    1.0108 C   0  0  0  0  0  0  0  0  0  0  0  0
    1.7270   -0.3817    1.3009 C   0  0  0  0  0  0  0  0  0  0  0  0
    3.9923   -1.1068    2.0514 C   0  0  0  0  0  0  0  0  0  0  0  0
    5.2258   -1.4913    1.7092 C   0  0  0  0  0  0  0  0  0  0  0  0
    5.6565   -1.6092    0.3049 C   0  0  0  0  0  0  0  0  0  0  0  0
    6.7952   -1.9662    0.0267 O   0  0  0  0  0  0  0  0  0  0  0  0
    4.7159   -1.2993   -0.6682 O   0  0  0  0  0  0  0  0  0  0  0  0
    0.2837    0.0657   -2.0354 O   0  0  0  0  0  0  0  0  0  0  0  0
    0.6796   -0.0385   -3.3999 C   0  0  0  0  0  0  0  0  0  0  0  0
   -1.0163    1.8371    0.3538 C   0  0  0  0  0  0  0  0  0  0  0  0
   -0.2131    2.9888    1.0178 C   0  0  0  0  0  0  0  0  0  0  0  0
   -0.1816    2.8779    2.5410 C   0  0  0  0  0  0  0  0  0  0  0  0
    1.2010    3.1855    0.4648 C   0  0  0  0  0  0  0  0  0  0  0  0
   -0.9189    4.2105    0.7074 O   0  0  0  0  0  0  0  0  0  0  0  0
   -1.1035    2.1164   -1.0609 O   0  0  0  0  0  0  0  0  0  0  0  0
   -4.0226   -2.7918   -3.1205 H   0  0  0  0  0  0  0  0  0  0  0  0
   -3.2941   -4.1556   -2.2558 H   0  0  0  0  0  0  0  0  0  0  0  0
   -4.8602   -3.5262   -1.7469 H   0  0  0  0  0  0  0  0  0  0  0  0
   -2.1332   -2.0695   -1.6187 H   0  0  0  0  0  0  0  0  0  0  0  0
   -5.5863   -2.5200   -0.0736 H   0  0  0  0  0  0  0  0  0  0  0  0
   -4.8048   -2.3918    1.5010 H   0  0  0  0  0  0  0  0  0  0  0  0
   -5.4057   -0.9403    0.6701 H   0  0  0  0  0  0  0  0  0  0  0  0
   -0.6790    0.2228    1.7576 H   0  0  0  0  0  0  0  0  0  0  0  0
    2.8969   -0.7220   -2.3774 H   0  0  0  0  0  0  0  0  0  0  0  0
    1.4158   -0.3034    2.3418 H   0  0  0  0  0  0  0  0  0  0  0  0
    3.6980   -1.0279    3.0921 H   0  0  0  0  0  0  0  0  0  0  0  0
    5.9746   -1.7373    2.4525 H   0  0  0  0  0  0  0  0  0  0  0  0
    1.4817    0.6693   -3.6329 H   0  0  0  0  0  0  0  0  0  0  0  0
   -0.1851    0.2238   -4.0170 H   0  0  0  0  0  0  0  0  0  0  0  0
    0.9668   -1.0652   -3.6490 H   0  0  0  0  0  0  0  0  0  0  0  0
   -2.0573    1.9448    0.6853 H   0  0  0  0  0  0  0  0  0  0  0  0
    0.4105    2.0239    2.8809 H   0  0  0  0  0  0  0  0  0  0  0  0
   -1.1960    2.7810    2.9444 H   0  0  0  0  0  0  0  0  0  0  0  0
    0.2414    3.7849    2.9885 H   0  0  0  0  0  0  0  0  0  0  0  0
    1.8894    2.4004    0.7813 H   0  0  0  0  0  0  0  0  0  0  0  0
    1.2008    3.2322   -0.6295 H   0  0  0  0  0  0  0  0  0  0  0  0
    1.6160    4.1415    0.8071 H   0  0  0  0  0  0  0  0  0  0  0  0
   -1.1531    4.1332   -0.2407 H   0  0  0  0  0  0  0  0  0  0  0  0
   -1.0077    1.2574   -1.5204 H   0  0  0  0  0  0  0  0  0  0  0  0
  1  2  1  0
  2  3  2  3
  3  4  1  0
  3  5  1  0
  5  6  2  0
  5  7  1  0
  7  8  1  0
  8  9  1  0
  9 10  2  0
 10 11  1  0
 11 12  2  0
 12 13  1  0
 13 14  2  0
 13 15  1  0
 15 16  2  0
 16 17  1  0
 17 18  2  0
 17 19  1  0
 10 20  1  0
 20 21  1  0
  8 22  1  0
 22 23  1  0
 23 24  1  0
 23 25  1  0
 23 26  1  0
 22 27  1  0
 14  9  1  0
 19 12  1  0
  1 28  1  0
  1 29  1  0
  1 30  1  0
  2 31  1  0
  4 32  1  0
  4 33  1  0
  4 34  1  0
  8 35  1  0
 11 36  1  0
 14 37  1  0
 15 38  1  0
 16 39  1  0
 21 40  1  0
 21 41  1  0
 21 42  1  0
 22 43  1  0
 24 44  1  0
 24 45  1  0
 24 46  1  0
 25 47  1  0
 25 48  1  0
 25 49  1  0
 26 50  1  0
 27 51  1  0
M  END
>  <Name>  (133) 
Angelol K

>  <PubChem ID>  (133) 
10248936

>  <CDB ID>  (133) 
CDB0133

>  <Smiles>  (133) 
CC=C(C)C(=O)OC(C1=C(C=C2C(=C1)C=CC(=O)O2)OC)C(C(C)(C)O)O

>  <Chemical class>  (133) 
7-Oxygenated Coumarins

>  <Natural source>  (133) 
Angelica pubescens f. biserrata

>  <Molecular Formula>  (133) 
C20H24O7

>  <InChI-Key>  (133) 
BAHUBXAYVOCLNA-UHFFFAOYSA-N

>  <Total Molweight>  (133) 
376.404

>  <cLogP>  (133) 
2.1102

>  <cLogS>  (133) 
-3.04

>  <H-Acceptors>  (133) 
7

>  <H-Donors>  (133) 
2

>  <Rotatable Bonds>  (133) 
7

>  <Polar Surface Area>  (133) 
102.29

$$$$
CDB0134
     RDKit          3D

 53 54  0  0  0  0  0  0  0  0999 V2000
    4.7153    0.3239    0.7591 C   0  0  0  0  0  0  0  0  0  0  0  0
    3.9623   -0.6712    1.6459 C   0  0  0  0  0  0  0  0  0  0  0  0
    4.6490   -0.7752    3.0087 C   0  0  0  0  0  0  0  0  0  0  0  0
    2.4938   -0.2601    1.8272 C   0  0  0  0  0  0  0  0  0  0  0  0
    1.6877   -0.3950    0.5547 C   0  0  0  0  0  0  0  0  0  0  0  0
    1.9149   -1.1937   -0.3404 O   0  0  0  0  0  0  0  0  0  0  0  0
    0.6551    0.4955    0.5751 O   0  0  0  0  0  0  0  0  0  0  0  0
   -0.2337    0.4627   -0.5699 C   0  0  0  0  0  0  0  0  0  0  0  0
   -1.3997   -0.4903   -0.3103 C   0  0  0  0  0  0  0  0  0  0  0  0
   -2.0810   -1.0753   -1.4020 C   0  0  0  0  0  0  0  0  0  0  0  0
   -3.1505   -1.9424   -1.1700 C   0  0  0  0  0  0  0  0  0  0  0  0
   -3.5416   -2.2114    0.1404 C   0  0  0  0  0  0  0  0  0  0  0  0
   -2.9018   -1.6354    1.2318 C   0  0  0  0  0  0  0  0  0  0  0  0
   -1.8318   -0.7700    1.0032 C   0  0  0  0  0  0  0  0  0  0  0  0
   -3.3707   -1.9490    2.5714 C   0  0  0  0  0  0  0  0  0  0  0  0
   -4.4011   -2.7855    2.7283 C   0  0  0  0  0  0  0  0  0  0  0  0
   -5.0921   -3.4122    1.5876 C   0  0  0  0  0  0  0  0  0  0  0  0
   -6.0319   -4.1774    1.7692 O   0  0  0  0  0  0  0  0  0  0  0  0
   -4.6276   -3.0924    0.3192 O   0  0  0  0  0  0  0  0  0  0  0  0
   -1.6289   -0.7136   -2.6448 O   0  0  0  0  0  0  0  0  0  0  0  0
   -2.2389   -1.3338   -3.7712 C   0  0  0  0  0  0  0  0  0  0  0  0
   -0.7566    1.9039   -0.8116 C   0  0  0  0  0  0  0  0  0  0  0  0
    0.2309    2.8580   -1.5437 C   0  0  0  0  0  0  0  0  0  0  0  0
    0.4733    2.4320   -2.9926 C   0  0  0  0  0  0  0  0  0  0  0  0
    1.5665    3.0529   -0.8224 C   0  0  0  0  0  0  0  0  0  0  0  0
   -0.3939    4.1562   -1.5937 O   0  0  0  0  0  0  0  0  0  0  0  0
   -1.1153    2.5346    0.4453 O   0  0  0  0  0  0  0  0  0  0  0  0
    5.7624    0.0241    0.6440 H   0  0  0  0  0  0  0  0  0  0  0  0
    4.6983    1.3314    1.1888 H   0  0  0  0  0  0  0  0  0  0  0  0
    4.2758    0.3762   -0.2420 H   0  0  0  0  0  0  0  0  0  0  0  0
    4.0091   -1.6580    1.1683 H   0  0  0  0  0  0  0  0  0  0  0  0
    4.6367    0.1854    3.5350 H   0  0  0  0  0  0  0  0  0  0  0  0
    5.6930   -1.0865    2.8957 H   0  0  0  0  0  0  0  0  0  0  0  0
    4.1475   -1.5152    3.6413 H   0  0  0  0  0  0  0  0  0  0  0  0
    2.4443    0.7790    2.1752 H   0  0  0  0  0  0  0  0  0  0  0  0
    2.0077   -0.8926    2.5790 H   0  0  0  0  0  0  0  0  0  0  0  0
    0.3171    0.1193   -1.4515 H   0  0  0  0  0  0  0  0  0  0  0  0
   -3.7002   -2.4149   -1.9762 H   0  0  0  0  0  0  0  0  0  0  0  0
   -1.3336   -0.3024    1.8491 H   0  0  0  0  0  0  0  0  0  0  0  0
   -2.8788   -1.4983    3.4261 H   0  0  0  0  0  0  0  0  0  0  0  0
   -4.7822   -3.0453    3.7084 H   0  0  0  0  0  0  0  0  0  0  0  0
   -1.7357   -0.9622   -4.6690 H   0  0  0  0  0  0  0  0  0  0  0  0
   -2.1098   -2.4208   -3.7425 H   0  0  0  0  0  0  0  0  0  0  0  0
   -3.2965   -1.0605   -3.8452 H   0  0  0  0  0  0  0  0  0  0  0  0
   -1.6846    1.8807   -1.3970 H   0  0  0  0  0  0  0  0  0  0  0  0
    1.0294    1.4927   -3.0623 H   0  0  0  0  0  0  0  0  0  0  0  0
   -0.4761    2.3145   -3.5273 H   0  0  0  0  0  0  0  0  0  0  0  0
    1.0367    3.2010   -3.5341 H   0  0  0  0  0  0  0  0  0  0  0  0
    1.4179    3.3661    0.2165 H   0  0  0  0  0  0  0  0  0  0  0  0
    2.1753    2.1448   -0.8331 H   0  0  0  0  0  0  0  0  0  0  0  0
    2.1484    3.8510   -1.2989 H   0  0  0  0  0  0  0  0  0  0  0  0
   -0.8786    4.2473   -0.7475 H   0  0  0  0  0  0  0  0  0  0  0  0
   -0.4750    2.2075    1.1049 H   0  0  0  0  0  0  0  0  0  0  0  0
  1  2  1  0
  2  3  1  0
  2  4  1  0
  4  5  1  0
  5  6  2  0
  5  7  1  0
  7  8  1  0
  8  9  1  0
  9 10  2  0
 10 11  1  0
 11 12  2  0
 12 13  1  0
 13 14  2  0
 13 15  1  0
 15 16  2  0
 16 17  1  0
 17 18  2  0
 17 19  1  0
 10 20  1  0
 20 21  1  0
  8 22  1  0
 22 23  1  0
 23 24  1  0
 23 25  1  0
 23 26  1  0
 22 27  1  0
 14  9  1  0
 19 12  1  0
  1 28  1  0
  1 29  1  0
  1 30  1  0
  2 31  1  0
  3 32  1  0
  3 33  1  0
  3 34  1  0
  4 35  1  0
  4 36  1  0
  8 37  1  0
 11 38  1  0
 14 39  1  0
 15 40  1  0
 16 41  1  0
 21 42  1  0
 21 43  1  0
 21 44  1  0
 22 45  1  0
 24 46  1  0
 24 47  1  0
 24 48  1  0
 25 49  1  0
 25 50  1  0
 25 51  1  0
 26 52  1  0
 27 53  1  0
M  END
>  <Name>  (134) 
Angelol L

>  <PubChem ID>  (134) 
15230415

>  <CDB ID>  (134) 
CDB0134

>  <Smiles>  (134) 
CC(C)CC(=O)OC(C1=C(C=C2C(=C1)C=CC(=O)O2)OC)C(C(C)(C)O)O

>  <Chemical class>  (134) 
7-Oxygenated Coumarins

>  <Natural source>  (134) 
Angelica pubescens f. biserrata

>  <Molecular Formula>  (134) 
C20H26O7

>  <InChI-Key>  (134) 
WPJFTNISWIMPLM-UHFFFAOYSA-N

>  <Total Molweight>  (134) 
378.419

>  <cLogP>  (134) 
1.9743

>  <cLogS>  (134) 
-3.304

>  <H-Acceptors>  (134) 
7

>  <H-Donors>  (134) 
2

>  <Rotatable Bonds>  (134) 
8

>  <Polar Surface Area>  (134) 
102.29

$$$$
CDB0135
     RDKit          3D

 33 36  0  0  0  0  0  0  0  0999 V2000
   -4.7906    0.4091   -0.2550 C   0  0  0  0  0  0  0  0  0  0  0  0
   -3.4287   -0.0327    0.1396 C   0  0  0  0  0  0  0  0  0  0  0  0
   -2.2330    0.7982   -0.1662 C   0  0  0  0  0  0  0  0  0  0  0  0
   -2.5552   -0.3541   -0.9579 O   0  0  0  0  0  0  0  0  0  0  0  0
   -1.2975    0.6128    0.9840 C   0  0  0  0  0  0  0  0  0  0  0  0
   -1.8933   -0.3692    1.8649 O   0  0  0  0  0  0  0  0  0  0  0  0
   -3.1304   -0.7293    1.4058 C   0  0  0  0  0  0  0  0  0  0  0  0
   -3.8895   -1.5068    1.9596 O   0  0  0  0  0  0  0  0  0  0  0  0
    0.0862    0.2051    0.5149 C   0  0  0  0  0  0  0  0  0  0  0  0
    0.9725    1.1802    0.0049 C   0  0  0  0  0  0  0  0  0  0  0  0
    2.2408    0.8010   -0.4405 C   0  0  0  0  0  0  0  0  0  0  0  0
    2.6142   -0.5408   -0.3828 C   0  0  0  0  0  0  0  0  0  0  0  0
    1.7591   -1.5216    0.1051 C   0  0  0  0  0  0  0  0  0  0  0  0
    0.4926   -1.1455    0.5518 C   0  0  0  0  0  0  0  0  0  0  0  0
    2.2101   -2.9030    0.1314 C   0  0  0  0  0  0  0  0  0  0  0  0
    3.4351   -3.2034   -0.3107 C   0  0  0  0  0  0  0  0  0  0  0  0
    4.3605   -2.1813   -0.8303 C   0  0  0  0  0  0  0  0  0  0  0  0
    5.4780   -2.4912   -1.2264 O   0  0  0  0  0  0  0  0  0  0  0  0
    3.9044   -0.8699   -0.8457 O   0  0  0  0  0  0  0  0  0  0  0  0
    0.4931    2.4655   -0.0133 O   0  0  0  0  0  0  0  0  0  0  0  0
    1.3574    3.4779   -0.5186 C   0  0  0  0  0  0  0  0  0  0  0  0
   -5.4574   -0.4534   -0.3517 H   0  0  0  0  0  0  0  0  0  0  0  0
   -4.7865    0.9403   -1.2128 H   0  0  0  0  0  0  0  0  0  0  0  0
   -5.2083    1.0808    0.5016 H   0  0  0  0  0  0  0  0  0  0  0  0
   -2.3104    1.7876   -0.5836 H   0  0  0  0  0  0  0  0  0  0  0  0
   -1.2310    1.5329    1.5764 H   0  0  0  0  0  0  0  0  0  0  0  0
    2.9552    1.5137   -0.8369 H   0  0  0  0  0  0  0  0  0  0  0  0
   -0.1888   -1.9059    0.9297 H   0  0  0  0  0  0  0  0  0  0  0  0
    1.5445   -3.6713    0.5096 H   0  0  0  0  0  0  0  0  0  0  0  0
    3.8093   -4.2199   -0.3085 H   0  0  0  0  0  0  0  0  0  0  0  0
    1.6025    3.2980   -1.5705 H   0  0  0  0  0  0  0  0  0  0  0  0
    0.8232    4.4311   -0.4599 H   0  0  0  0  0  0  0  0  0  0  0  0
    2.2620    3.5651    0.0921 H   0  0  0  0  0  0  0  0  0  0  0  0
  1  2  1  0
  2  3  1  0
  3  4  1  0
  3  5  1  0
  5  6  1  0
  6  7  1  0
  7  8  2  0
  5  9  1  0
  9 10  2  0
 10 11  1  0
 11 12  2  0
 12 13  1  0
 13 14  2  0
 13 15  1  0
 15 16  2  0
 16 17  1  0
 17 18  2  0
 17 19  1  0
 10 20  1  0
 20 21  1  0
  4  2  1  0
  7  2  1  0
 14  9  1  0
 19 12  1  0
  1 22  1  0
  1 23  1  0
  1 24  1  0
  3 25  1  0
  5 26  1  0
 11 27  1  0
 14 28  1  0
 15 29  1  0
 16 30  1  0
 21 31  1  0
 21 32  1  0
 21 33  1  0
M  END
>  <Name>  (135) 
Micromelin (Micromelumin)

>  <PubChem ID>  (135) 
146157326

>  <CDB ID>  (135) 
CDB0135

>  <Smiles>  (135) 
CC12C(O1)C(OC2=O)C3=C(C=C4C(=C3)C=CC(=O)O4)OC

>  <Chemical class>  (135) 
7-Oxygenated Coumarins

>  <Natural source>  (135) 
Micromelum minutum

>  <Molecular Formula>  (135) 
C15H12O6

>  <InChI-Key>  (135) 
VIORQNDMAWQQCV-UHFFFAOYSA-N

>  <Total Molweight>  (135) 
288.254

>  <cLogP>  (135) 
0.412

>  <cLogS>  (135) 
-2.631

>  <H-Acceptors>  (135) 
6

>  <H-Donors>  (135) 
0

>  <Rotatable Bonds>  (135) 
2

>  <Polar Surface Area>  (135) 
74.36

$$$$
CDB0136
     RDKit          3D

 44 45  0  0  0  0  0  0  0  0999 V2000
   -4.0492   -0.5481   -2.1828 C   0  0  0  0  0  0  0  0  0  0  0  0
   -3.8598    0.1116   -0.8415 C   0  0  0  0  0  0  0  0  0  0  0  0
   -3.1339    1.2411   -0.7294 C   0  0  0  0  0  0  0  0  0  0  0  0
   -2.8531    2.0439    0.5141 C   0  0  0  0  0  0  0  0  0  0  0  0
   -1.4028    1.9084    1.0013 C   0  0  0  0  0  0  0  0  0  0  0  0
   -1.0965    0.5766    1.6598 C   0  0  0  0  0  0  0  0  0  0  0  0
   -0.4720   -0.4572    1.0590 C   0  0  0  0  0  0  0  0  0  0  0  0
    0.0094   -0.5431   -0.3642 C   0  0  0  0  0  0  0  0  0  0  0  0
    1.4969   -0.8031   -0.4452 C   0  0  0  0  0  0  0  0  0  0  0  0
    2.0549   -2.0910   -0.4586 C   0  0  0  0  0  0  0  0  0  0  0  0
    3.4330   -2.2766   -0.5446 C   0  0  0  0  0  0  0  0  0  0  0  0
    4.2649   -1.1638   -0.5971 C   0  0  0  0  0  0  0  0  0  0  0  0
    3.7527    0.1292   -0.5653 C   0  0  0  0  0  0  0  0  0  0  0  0
    2.3686    0.3054   -0.4871 C   0  0  0  0  0  0  0  0  0  0  0  0
    4.6729    1.2533   -0.6138 C   0  0  0  0  0  0  0  0  0  0  0  0
    5.9872    1.0230   -0.6899 C   0  0  0  0  0  0  0  0  0  0  0  0
    6.5515   -0.3380   -0.7274 C   0  0  0  0  0  0  0  0  0  0  0  0
    7.7632   -0.5086   -0.7987 O   0  0  0  0  0  0  0  0  0  0  0  0
    5.6522   -1.3938   -0.6780 O   0  0  0  0  0  0  0  0  0  0  0  0
    1.3088   -3.2329   -0.3869 O   0  0  0  0  0  0  0  0  0  0  0  0
   -1.5248    0.4689    3.1023 C   0  0  0  0  0  0  0  0  0  0  0  0
   -4.5256   -0.6081    0.2985 C   0  0  0  0  0  0  0  0  0  0  0  0
   -5.1146   -0.6095   -2.4276 H   0  0  0  0  0  0  0  0  0  0  0  0
   -3.5537    0.0010   -2.9904 H   0  0  0  0  0  0  0  0  0  0  0  0
   -3.6354   -1.5617   -2.1682 H   0  0  0  0  0  0  0  0  0  0  0  0
   -2.6891    1.6598   -1.6323 H   0  0  0  0  0  0  0  0  0  0  0  0
   -3.5558    1.8148    1.3206 H   0  0  0  0  0  0  0  0  0  0  0  0
   -3.0344    3.0975    0.2645 H   0  0  0  0  0  0  0  0  0  0  0  0
   -1.2056    2.7042    1.7321 H   0  0  0  0  0  0  0  0  0  0  0  0
   -0.7103    2.1134    0.1772 H   0  0  0  0  0  0  0  0  0  0  0  0
   -0.2998   -1.3590    1.6465 H   0  0  0  0  0  0  0  0  0  0  0  0
   -0.5402   -1.3396   -0.8798 H   0  0  0  0  0  0  0  0  0  0  0  0
   -0.2224    0.3590   -0.9392 H   0  0  0  0  0  0  0  0  0  0  0  0
    3.8515   -3.2784   -0.5622 H   0  0  0  0  0  0  0  0  0  0  0  0
    1.9529    1.3111   -0.4568 H   0  0  0  0  0  0  0  0  0  0  0  0
    4.2797    2.2633   -0.5868 H   0  0  0  0  0  0  0  0  0  0  0  0
    6.7075    1.8310   -0.7279 H   0  0  0  0  0  0  0  0  0  0  0  0
    0.3923   -3.0157   -0.1584 H   0  0  0  0  0  0  0  0  0  0  0  0
   -2.6078    0.5972    3.1928 H   0  0  0  0  0  0  0  0  0  0  0  0
   -1.0312    1.2400    3.7028 H   0  0  0  0  0  0  0  0  0  0  0  0
   -1.2710   -0.5025    3.5397 H   0  0  0  0  0  0  0  0  0  0  0  0
   -4.3255   -0.1606    1.2740 H   0  0  0  0  0  0  0  0  0  0  0  0
   -4.1745   -1.6446    0.3435 H   0  0  0  0  0  0  0  0  0  0  0  0
   -5.6109   -0.6179    0.1540 H   0  0  0  0  0  0  0  0  0  0  0  0
  1  2  1  0
  2  3  2  3
  3  4  1  0
  4  5  1  0
  5  6  1  0
  6  7  2  3
  7  8  1  0
  8  9  1  0
  9 10  2  0
 10 11  1  0
 11 12  2  0
 12 13  1  0
 13 14  2  0
 13 15  1  0
 15 16  2  0
 16 17  1  0
 17 18  2  0
 17 19  1  0
 10 20  1  0
  6 21  1  0
  2 22  1  0
 14  9  1  0
 19 12  1  0
  1 23  1  0
  1 24  1  0
  1 25  1  0
  3 26  1  0
  4 27  1  0
  4 28  1  0
  5 29  1  0
  5 30  1  0
  7 31  1  0
  8 32  1  0
  8 33  1  0
 11 34  1  0
 14 35  1  0
 15 36  1  0
 16 37  1  0
 20 38  1  0
 21 39  1  0
 21 40  1  0
 21 41  1  0
 22 42  1  0
 22 43  1  0
 22 44  1  0
M  END
>  <Name>  (136) 
Ostruthin

>  <PubChem ID>  (136) 
5281420

>  <CDB ID>  (136) 
CDB0136

>  <Smiles>  (136) 
CC(=CCCC(=CCC1=C(C=C2C(=C1)C=CC(=O)O2)O)C)C

>  <Chemical class>  (136) 
7-Oxygenated Coumarins

>  <Natural source>  (136) 
Citrus hassaku

>  <Molecular Formula>  (136) 
C19H22O3

>  <InChI-Key>  (136) 
INBMTJJPUABOQJ-UHFFFAOYSA-N

>  <Total Molweight>  (136) 
298.381

>  <cLogP>  (136) 
5.346

>  <cLogS>  (136) 
-3.989

>  <H-Acceptors>  (136) 
3

>  <H-Donors>  (136) 
1

>  <Rotatable Bonds>  (136) 
5

>  <Polar Surface Area>  (136) 
46.53

$$$$
CDB0137
     RDKit          3D

 41 43  0  0  0  0  0  0  0  0999 V2000
   -3.0101    0.8796    2.2450 C   0  0  0  0  0  0  0  0  0  0  0  0
   -3.1882    0.3775    0.8005 C   0  0  0  0  0  0  0  0  0  0  0  0
   -4.6910    0.3471    0.4723 C   0  0  0  0  0  0  0  0  0  0  0  0
   -2.4887    1.3430   -0.1295 C   0  0  0  0  0  0  0  0  0  0  0  0
   -1.3700    1.0662   -0.8200 C   0  0  0  0  0  0  0  0  0  0  0  0
   -0.5952   -0.2506   -0.7732 C   0  0  1  0  0  0  0  0  0  0  0  0
   -0.9448   -1.0812   -2.0344 C   0  0  0  0  0  0  0  0  0  0  0  0
    0.9472   -0.0148   -0.7596 C   0  0  0  0  0  0  0  0  0  0  0  0
    1.6104    0.7274   -1.7661 C   0  0  0  0  0  0  0  0  0  0  0  0
    0.8985    1.2666   -2.8037 O   0  0  0  0  0  0  0  0  0  0  0  0
    2.9937    0.9305   -1.7526 C   0  0  0  0  0  0  0  0  0  0  0  0
    3.7465    0.3779   -0.7268 C   0  0  0  0  0  0  0  0  0  0  0  0
    5.1358    0.6028   -0.7479 O   0  0  0  0  0  0  0  0  0  0  0  0
    5.9607    0.0777    0.2375 C   0  0  0  0  0  0  0  0  0  0  0  0
    7.1728    0.2581    0.2433 O   0  0  0  0  0  0  0  0  0  0  0  0
    5.3137   -0.7199    1.2941 C   0  0  0  0  0  0  0  0  0  0  0  0
    3.9955   -0.9384    1.3211 C   0  0  0  0  0  0  0  0  0  0  0  0
    3.1546   -0.3743    0.2769 C   0  0  0  0  0  0  0  0  0  0  0  0
    1.7673   -0.5704    0.2524 C   0  0  0  0  0  0  0  0  0  0  0  0
   -1.0929   -1.0497    0.4793 C   0  0  0  0  0  0  0  0  0  0  0  0
   -2.6167   -1.0505    0.6495 C   0  0  0  0  0  0  0  0  0  0  0  0
   -1.9535    0.9501    2.5264 H   0  0  0  0  0  0  0  0  0  0  0  0
   -3.4998    0.2079    2.9593 H   0  0  0  0  0  0  0  0  0  0  0  0
   -3.4490    1.8760    2.3776 H   0  0  0  0  0  0  0  0  0  0  0  0
   -4.8676    0.0333   -0.5633 H   0  0  0  0  0  0  0  0  0  0  0  0
   -5.1502    1.3346    0.5991 H   0  0  0  0  0  0  0  0  0  0  0  0
   -5.2227   -0.3521    1.1279 H   0  0  0  0  0  0  0  0  0  0  0  0
   -2.9322    2.3315   -0.2421 H   0  0  0  0  0  0  0  0  0  0  0  0
   -0.9915    1.8473   -1.4748 H   0  0  0  0  0  0  0  0  0  0  0  0
   -2.0164   -1.2961   -2.1032 H   0  0  0  0  0  0  0  0  0  0  0  0
   -0.4146   -2.0414   -2.0291 H   0  0  0  0  0  0  0  0  0  0  0  0
   -0.6805   -0.5731   -2.9670 H   0  0  0  0  0  0  0  0  0  0  0  0
    1.5029    1.7265   -3.4093 H   0  0  0  0  0  0  0  0  0  0  0  0
    3.4919    1.5060   -2.5258 H   0  0  0  0  0  0  0  0  0  0  0  0
    5.9751   -1.1208    2.0525 H   0  0  0  0  0  0  0  0  0  0  0  0
    3.5403   -1.5281    2.1090 H   0  0  0  0  0  0  0  0  0  0  0  0
    1.3395   -1.1790    1.0435 H   0  0  0  0  0  0  0  0  0  0  0  0
   -0.7441   -2.0896    0.4279 H   0  0  0  0  0  0  0  0  0  0  0  0
   -0.6705   -0.6225    1.3977 H   0  0  0  0  0  0  0  0  0  0  0  0
   -2.8794   -1.6555    1.5270 H   0  0  0  0  0  0  0  0  0  0  0  0
   -3.0768   -1.5595   -0.2059 H   0  0  0  0  0  0  0  0  0  0  0  0
  1  2  1  0
  2  3  1  0
  2  4  1  0
  4  5  2  0
  5  6  1  0
  6  7  1  6
  6  8  1  0
  8  9  2  0
  9 10  1  0
  9 11  1  0
 11 12  2  0
 12 13  1  0
 13 14  1  0
 14 15  2  0
 14 16  1  0
 16 17  2  0
 17 18  1  0
 18 19  2  0
  6 20  1  0
 20 21  1  0
 21  2  1  0
 19  8  1  0
 18 12  1  0
  1 22  1  0
  1 23  1  0
  1 24  1  0
  3 25  1  0
  3 26  1  0
  3 27  1  0
  4 28  1  0
  5 29  1  0
  7 30  1  0
  7 31  1  0
  7 32  1  0
 10 33  1  0
 11 34  1  0
 16 35  1  0
 17 36  1  0
 19 37  1  0
 20 38  1  0
 20 39  1  0
 21 40  1  0
 21 41  1  0
M  END
>  <Name>  (137) 
Peucenol (Peumorisin)

>  <PubChem ID>  (137) 
71438144

>  <CDB ID>  (137) 
CDB0137

>  <Smiles>  (137) 
CC1(C)C=C[C@@](C)(C2=C(O)C=C3OC(=O)C=CC3=C2)CC1

>  <Chemical class>  (137) 
7-Oxygenated Coumarins

>  <Natural source>  (137) 
Peucedanum morisonii

>  <Molecular Formula>  (137) 
C18H20O3

>  <InChI-Key>  (137) 
TZIJCRYUQXPGEI-GOSISDBHSA-N

>  <Total Molweight>  (137) 
284.354

>  <cLogP>  (137) 
3.3859

>  <cLogS>  (137) 
-4.239

>  <H-Acceptors>  (137) 
3

>  <H-Donors>  (137) 
1

>  <Rotatable Bonds>  (137) 
1

>  <Polar Surface Area>  (137) 
46.53

$$$$
CDB0138
     RDKit          3D

 44 47  0  0  0  0  0  0  0  0999 V2000
   -0.0318   -4.3702   -2.4609 C   0  0  0  0  0  0  0  0  0  0  0  0
    0.5031   -3.1592   -1.7553 C   0  0  0  0  0  0  0  0  0  0  0  0
   -0.3379   -2.0831   -1.4514 C   0  0  0  0  0  0  0  0  0  0  0  0
    0.1292   -0.9443   -0.7590 C   0  0  0  0  0  0  0  0  0  0  0  0
    1.4881   -0.8994   -0.3709 C   0  0  0  0  0  0  0  0  0  0  0  0
    2.3132   -1.9990   -0.6292 C   0  0  0  0  0  0  0  0  0  0  0  0
    1.8277   -3.1183   -1.3205 C   0  0  0  0  0  0  0  0  0  0  0  0
    3.7068   -2.0229   -0.1512 C   0  0  0  0  0  0  0  0  0  0  0  0
    4.4795   -2.9231   -0.4533 O   0  0  0  0  0  0  0  0  0  0  0  0
    4.1383   -0.9479    0.7503 C   0  0  0  0  0  0  0  0  0  0  0  0
    3.3909    0.1309    0.9932 C   0  0  0  0  0  0  0  0  0  0  0  0
    2.0858    0.3014    0.2755 C   0  0  0  0  0  0  0  0  0  0  0  0
    1.5596    1.4043    0.1832 O   0  0  0  0  0  0  0  0  0  0  0  0
    3.9043    1.0969    1.8485 O   0  0  0  0  0  0  0  0  0  0  0  0
    2.9371    1.8469    2.5783 C   0  0  0  0  0  0  0  0  0  0  0  0
   -0.8510    0.1089   -0.4283 C   0  0  0  0  0  0  0  0  0  0  0  0
   -1.3473    0.2668    0.8897 C   0  0  0  0  0  0  0  0  0  0  0  0
   -2.2809    1.2695    1.1633 C   0  0  0  0  0  0  0  0  0  0  0  0
   -2.7083    2.1060    0.1330 C   0  0  0  0  0  0  0  0  0  0  0  0
   -2.2362    1.9743   -1.1682 C   0  0  0  0  0  0  0  0  0  0  0  0
   -1.3094    0.9703   -1.4469 C   0  0  0  0  0  0  0  0  0  0  0  0
   -2.7188    2.8873   -2.1909 C   0  0  0  0  0  0  0  0  0  0  0  0
   -3.6081    3.8300   -1.8642 C   0  0  0  0  0  0  0  0  0  0  0  0
   -4.1299    3.9840   -0.4949 C   0  0  0  0  0  0  0  0  0  0  0  0
   -4.9520    4.8543   -0.2326 O   0  0  0  0  0  0  0  0  0  0  0  0
   -3.6505    3.1017    0.4637 O   0  0  0  0  0  0  0  0  0  0  0  0
   -0.8588   -0.6148    1.8244 O   0  0  0  0  0  0  0  0  0  0  0  0
   -1.2645   -0.4256    3.1742 C   0  0  0  0  0  0  0  0  0  0  0  0
   -0.8321   -4.0948   -3.1558 H   0  0  0  0  0  0  0  0  0  0  0  0
    0.7532   -4.8589   -3.0475 H   0  0  0  0  0  0  0  0  0  0  0  0
   -0.4258   -5.0848   -1.7318 H   0  0  0  0  0  0  0  0  0  0  0  0
   -1.3881   -2.1335   -1.7418 H   0  0  0  0  0  0  0  0  0  0  0  0
    2.4878   -3.9643   -1.5115 H   0  0  0  0  0  0  0  0  0  0  0  0
    5.1133   -1.0712    1.2077 H   0  0  0  0  0  0  0  0  0  0  0  0
    3.4367    2.2652    3.4575 H   0  0  0  0  0  0  0  0  0  0  0  0
    2.1111    1.2192    2.9304 H   0  0  0  0  0  0  0  0  0  0  0  0
    2.5702    2.6858    1.9806 H   0  0  0  0  0  0  0  0  0  0  0  0
   -2.6907    1.4268    2.1542 H   0  0  0  0  0  0  0  0  0  0  0  0
   -0.9183    0.8574   -2.4562 H   0  0  0  0  0  0  0  0  0  0  0  0
   -2.3450    2.7943   -3.2045 H   0  0  0  0  0  0  0  0  0  0  0  0
   -3.9903    4.5322   -2.5949 H   0  0  0  0  0  0  0  0  0  0  0  0
   -2.3420   -0.5833    3.2871 H   0  0  0  0  0  0  0  0  0  0  0  0
   -0.9653    0.5611    3.5430 H   0  0  0  0  0  0  0  0  0  0  0  0
   -0.7532   -1.1767    3.7840 H   0  0  0  0  0  0  0  0  0  0  0  0
  1  2  1  0
  2  3  2  0
  3  4  1  0
  4  5  2  0
  5  6  1  0
  6  7  2  0
  6  8  1  0
  8  9  2  0
  8 10  1  0
 10 11  2  0
 11 12  1  0
 12 13  2  0
 11 14  1  0
 14 15  1  0
  4 16  1  0
 16 17  2  0
 17 18  1  0
 18 19  2  0
 19 20  1  0
 20 21  2  0
 20 22  1  0
 22 23  2  0
 23 24  1  0
 24 25  2  0
 24 26  1  0
 17 27  1  0
 27 28  1  0
  7  2  1  0
 12  5  1  0
 21 16  1  0
 26 19  1  0
  1 29  1  0
  1 30  1  0
  1 31  1  0
  3 32  1  0
  7 33  1  0
 10 34  1  0
 15 35  1  0
 15 36  1  0
 15 37  1  0
 18 38  1  0
 21 39  1  0
 22 40  1  0
 23 41  1  0
 28 42  1  0
 28 43  1  0
 28 44  1  0
M  END
>  <Name>  (138) 
Naphthoherniarin

>  <PubChem ID>  (138) 
363452

>  <CDB ID>  (138) 
CDB0138

>  <Smiles>  (138) 
CC1=CC(=C2C(=C1)C(=O)C=C(C2=O)OC)C3=C(C=C4C(=C3)C=CC(=O)O4)OC

>  <Chemical class>  (138) 
7-Oxygenated Coumarins

>  <Natural source>  (138) 
Ruta graveolens

>  <Molecular Formula>  (138) 
C22H16O6

>  <InChI-Key>  (138) 
MSDIEAZOLJWCBV-UHFFFAOYSA-N

>  <Total Molweight>  (138) 
376.363

>  <cLogP>  (138) 
3.1384

>  <cLogS>  (138) 
-6.103

>  <H-Acceptors>  (138) 
6

>  <H-Donors>  (138) 
0

>  <Rotatable Bonds>  (138) 
3

>  <Polar Surface Area>  (138) 
78.9

$$$$
CDB0139
     RDKit          3D

 69 73  0  0  0  0  0  0  0  0999 V2000
    8.8951   -0.9691    0.5794 C   0  0  0  0  0  0  0  0  0  0  0  0
    7.8794   -0.2542   -0.1128 O   0  0  0  0  0  0  0  0  0  0  0  0
    6.5875   -0.6897    0.0206 C   0  0  0  0  0  0  0  0  0  0  0  0
    5.5783    0.1078   -0.5557 C   0  0  0  0  0  0  0  0  0  0  0  0
    5.8134    1.2807   -1.2420 O   0  0  0  0  0  0  0  0  0  0  0  0
    6.7861    1.1541   -2.2779 C   0  0  0  0  0  0  0  0  0  0  0  0
    4.2217   -0.2298   -0.3958 C   0  0  0  0  0  0  0  0  0  0  0  0
    3.8841   -1.3998    0.2906 C   0  0  0  0  0  0  0  0  0  0  0  0
    4.8766   -2.2164    0.8339 C   0  0  0  0  0  0  0  0  0  0  0  0
    6.2217   -1.8582    0.7024 C   0  0  0  0  0  0  0  0  0  0  0  0
    2.4511   -1.7556    0.4299 C   0  0  0  0  0  0  0  0  0  0  0  0
    2.1210   -2.7764    1.0309 O   0  0  0  0  0  0  0  0  0  0  0  0
    1.4099   -0.8690   -0.1616 C   0  0  0  0  0  0  0  0  0  0  0  0
    0.0371   -1.1798   -0.0667 C   0  0  0  0  0  0  0  0  0  0  0  0
   -0.3607   -2.3210    0.5845 O   0  0  0  0  0  0  0  0  0  0  0  0
   -0.9385   -0.3293   -0.6255 C   0  0  0  0  0  0  0  0  0  0  0  0
   -2.4552   -0.5788   -0.5718 C   0  0  1  0  0  0  0  0  0  0  0  0
   -2.9219   -2.0140   -0.3925 C   0  0  0  0  0  0  0  0  0  0  0  0
   -3.3291   -2.8958   -1.3299 C   0  0  0  0  0  0  0  0  0  0  0  0
   -3.7833   -4.2749   -0.9288 C   0  0  0  0  0  0  0  0  0  0  0  0
   -3.3541   -2.6433   -2.8112 C   0  0  0  0  0  0  0  0  0  0  0  0
   -3.2231    0.3633    0.3792 C   0  0  0  0  0  0  0  0  0  0  0  0
   -2.9128    0.5092    1.7500 C   0  0  0  0  0  0  0  0  0  0  0  0
   -1.8727   -0.2391    2.2243 O   0  0  0  0  0  0  0  0  0  0  0  0
   -1.5978   -0.2074    3.6170 C   0  0  0  0  0  0  0  0  0  0  0  0
   -3.6603    1.3887    2.5401 C   0  0  0  0  0  0  0  0  0  0  0  0
   -4.7152    2.1012    1.9732 C   0  0  0  0  0  0  0  0  0  0  0  0
   -5.4307    2.9745    2.8173 O   0  0  0  0  0  0  0  0  0  0  0  0
   -6.4986    3.7207    2.3379 C   0  0  0  0  0  0  0  0  0  0  0  0
   -7.1323    4.4919    3.0491 O   0  0  0  0  0  0  0  0  0  0  0  0
   -6.8469    3.5514    0.9161 C   0  0  0  0  0  0  0  0  0  0  0  0
   -6.1742    2.7276    0.1069 C   0  0  0  0  0  0  0  0  0  0  0  0
   -5.0572    1.9629    0.6350 C   0  0  0  0  0  0  0  0  0  0  0  0
   -4.3129    1.0909   -0.1572 C   0  0  0  0  0  0  0  0  0  0  0  0
   -0.4747    0.8489   -1.2576 C   0  0  0  0  0  0  0  0  0  0  0  0
   -1.3907    1.6965   -1.8382 O   0  0  0  0  0  0  0  0  0  0  0  0
   -1.3555    2.9977   -1.2484 C   0  0  0  0  0  0  0  0  0  0  0  0
    0.8906    1.1404   -1.3775 C   0  0  0  0  0  0  0  0  0  0  0  0
    1.8420    0.2902   -0.8227 C   0  0  0  0  0  0  0  0  0  0  0  0
    3.2053    0.5771   -0.9334 N   0  0  0  0  0  0  0  0  0  0  0  0
    8.7087   -0.9794    1.6584 H   0  0  0  0  0  0  0  0  0  0  0  0
    9.8429   -0.4489    0.4109 H   0  0  0  0  0  0  0  0  0  0  0  0
    8.9990   -1.9847    0.1839 H   0  0  0  0  0  0  0  0  0  0  0  0
    6.5085    1.8480   -3.0775 H   0  0  0  0  0  0  0  0  0  0  0  0
    6.8197    0.1473   -2.7100 H   0  0  0  0  0  0  0  0  0  0  0  0
    7.7714    1.4544   -1.9100 H   0  0  0  0  0  0  0  0  0  0  0  0
    4.6070   -3.1261    1.3666 H   0  0  0  0  0  0  0  0  0  0  0  0
    6.9604   -2.5153    1.1508 H   0  0  0  0  0  0  0  0  0  0  0  0
    0.4353   -2.7885    0.9206 H   0  0  0  0  0  0  0  0  0  0  0  0
   -2.7919   -0.3011   -1.5789 H   0  0  0  0  0  0  0  0  0  0  0  0
   -2.9270   -2.3400    0.6484 H   0  0  0  0  0  0  0  0  0  0  0  0
   -3.1385   -5.0343   -1.3832 H   0  0  0  0  0  0  0  0  0  0  0  0
   -3.7580   -4.4239    0.1558 H   0  0  0  0  0  0  0  0  0  0  0  0
   -4.8119   -4.4458   -1.2629 H   0  0  0  0  0  0  0  0  0  0  0  0
   -2.8331   -3.4498   -3.3387 H   0  0  0  0  0  0  0  0  0  0  0  0
   -4.3881   -2.6105   -3.1693 H   0  0  0  0  0  0  0  0  0  0  0  0
   -2.8648   -1.7120   -3.1042 H   0  0  0  0  0  0  0  0  0  0  0  0
   -0.7759   -0.9033    3.8109 H   0  0  0  0  0  0  0  0  0  0  0  0
   -2.4622   -0.5422    4.1998 H   0  0  0  0  0  0  0  0  0  0  0  0
   -1.2702    0.7892    3.9300 H   0  0  0  0  0  0  0  0  0  0  0  0
   -3.4491    1.5393    3.5927 H   0  0  0  0  0  0  0  0  0  0  0  0
   -7.6864    4.1383    0.5641 H   0  0  0  0  0  0  0  0  0  0  0  0
   -6.4473    2.6158   -0.9366 H   0  0  0  0  0  0  0  0  0  0  0  0
   -4.5685    0.9686   -1.2085 H   0  0  0  0  0  0  0  0  0  0  0  0
   -1.2723    2.9518   -0.1564 H   0  0  0  0  0  0  0  0  0  0  0  0
   -2.2954    3.5008   -1.4946 H   0  0  0  0  0  0  0  0  0  0  0  0
   -0.5375    3.5898   -1.6704 H   0  0  0  0  0  0  0  0  0  0  0  0
    1.2070    2.0274   -1.9177 H   0  0  0  0  0  0  0  0  0  0  0  0
    3.5153    1.4303   -1.3851 H   0  0  0  0  0  0  0  0  0  0  0  0
  1  2  1  0
  2  3  1  0
  3  4  2  0
  4  5  1  0
  5  6  1  0
  4  7  1  0
  7  8  2  0
  8  9  1  0
  9 10  2  0
  8 11  1  0
 11 12  2  0
 11 13  1  0
 13 14  1  0
 14 15  1  0
 14 16  2  0
 16 17  1  0
 17 18  1  0
 18 19  2  3
 19 20  1  0
 19 21  1  0
 17 22  1  0
 22 23  2  0
 23 24  1  0
 24 25  1  0
 23 26  1  0
 26 27  2  0
 27 28  1  0
 28 29  1  0
 29 30  2  0
 29 31  1  0
 31 32  2  0
 32 33  1  0
 33 34  2  0
 16 35  1  0
 35 36  1  0
 36 37  1  0
 35 38  2  0
 38 39  1  0
 39 40  1  0
 10  3  1  0
 39 13  2  0
 40  7  1  0
 34 22  1  0
 33 27  1  0
  1 41  1  0
  1 42  1  0
  1 43  1  0
  6 44  1  0
  6 45  1  0
  6 46  1  0
  9 47  1  0
 10 48  1  0
 15 49  1  0
 17 50  1  6
 18 51  1  0
 20 52  1  0
 20 53  1  0
 20 54  1  0
 21 55  1  0
 21 56  1  0
 21 57  1  0
 25 58  1  0
 25 59  1  0
 25 60  1  0
 26 61  1  0
 31 62  1  0
 32 63  1  0
 34 64  1  0
 37 65  1  0
 37 66  1  0
 37 67  1  0
 38 68  1  0
 40 69  1  0
M  END
>  <Name>  (139) 
Acrimarine B

>  <PubChem ID>  (139) 
14192331

>  <CDB ID>  (139) 
CDB0139

>  <Smiles>  (139) 
COC1=C(OC)C2=C(C=C1)C(=O)C1=C(O)C([C@@H](C=C(C)C)C3=C(OC)C=C4OC(=O)C=CC4=C3)=C(OC)C=C1N2

>  <Chemical class>  (139) 
7-Oxygenated Coumarins

>  <Natural source>  (139) 
Citrus funadoko

>  <Molecular Formula>  (139) 
C31H29NO8

>  <InChI-Key>  (139) 
GYFLCSOBRHGLCZ-IBGZPJMESA-N

>  <Total Molweight>  (139) 
543.57

>  <cLogP>  (139) 
5.8171

>  <cLogS>  (139) 
-6.826

>  <H-Acceptors>  (139) 
9

>  <H-Donors>  (139) 
2

>  <Rotatable Bonds>  (139) 
7

>  <Polar Surface Area>  (139) 
112.55

$$$$
CDB0140
     RDKit          3D

 66 70  0  0  0  0  0  0  0  0999 V2000
   -0.9525   -2.6140    4.3082 C   0  0  0  0  0  0  0  0  0  0  0  0
   -0.4097   -2.1973    3.0621 O   0  0  0  0  0  0  0  0  0  0  0  0
   -1.2783   -1.7557    2.0932 C   0  0  0  0  0  0  0  0  0  0  0  0
   -2.6663   -1.8804    2.2041 C   0  0  0  0  0  0  0  0  0  0  0  0
   -3.4916   -1.4007    1.1986 C   0  0  0  0  0  0  0  0  0  0  0  0
   -4.8389   -1.5586    1.3910 O   0  0  0  0  0  0  0  0  0  0  0  0
   -2.9443   -0.7866    0.0708 C   0  0  0  0  0  0  0  0  0  0  0  0
   -3.8387   -0.2483   -0.9899 C   0  0  0  0  0  0  0  0  0  0  0  0
   -5.0586   -0.3629   -0.8801 O   0  0  0  0  0  0  0  0  0  0  0  0
   -3.2558    0.4262   -2.1687 C   0  0  0  0  0  0  0  0  0  0  0  0
   -1.8652    0.5321   -2.2502 C   0  0  0  0  0  0  0  0  0  0  0  0
   -1.0681    0.0096   -1.2160 N   0  0  0  0  0  0  0  0  0  0  0  0
   -1.5430   -0.6571   -0.0761 C   0  0  0  0  0  0  0  0  0  0  0  0
   -0.6851   -1.1615    0.9394 C   0  0  0  0  0  0  0  0  0  0  0  0
    0.8624   -1.0725    0.9079 C   0  0  1  0  0  0  0  0  0  0  0  0
    1.5318   -1.2184   -0.4550 C   0  0  0  0  0  0  0  0  0  0  0  0
    1.5220   -2.2941   -1.2702 C   0  0  0  0  0  0  0  0  0  0  0  0
    0.8245   -3.5920   -0.9694 C   0  0  0  0  0  0  0  0  0  0  0  0
    2.2364   -2.2629   -2.5951 C   0  0  0  0  0  0  0  0  0  0  0  0
    1.4046    0.1621    1.6560 C   0  0  0  0  0  0  0  0  0  0  0  0
    2.4797    0.0426    2.5701 C   0  0  0  0  0  0  0  0  0  0  0  0
    2.9968   -1.2155    2.7387 O   0  0  0  0  0  0  0  0  0  0  0  0
    4.0011   -1.3941    3.7285 C   0  0  0  0  0  0  0  0  0  0  0  0
    2.9652    1.1779    3.2267 C   0  0  0  0  0  0  0  0  0  0  0  0
    2.3914    2.4207    2.9691 C   0  0  0  0  0  0  0  0  0  0  0  0
    2.9209    3.5308    3.6578 O   0  0  0  0  0  0  0  0  0  0  0  0
    2.4141    4.8077    3.4577 C   0  0  0  0  0  0  0  0  0  0  0  0
    2.8572    5.7886    4.0438 O   0  0  0  0  0  0  0  0  0  0  0  0
    1.3054    4.9431    2.4966 C   0  0  0  0  0  0  0  0  0  0  0  0
    0.7969    3.8976    1.8375 C   0  0  0  0  0  0  0  0  0  0  0  0
    1.3466    2.5720    2.0677 C   0  0  0  0  0  0  0  0  0  0  0  0
    0.8597    1.4430    1.4092 C   0  0  0  0  0  0  0  0  0  0  0  0
   -1.2727    1.1656   -3.3623 C   0  0  0  0  0  0  0  0  0  0  0  0
    0.1008    1.2107   -3.3089 O   0  0  0  0  0  0  0  0  0  0  0  0
    0.7968    1.3932   -4.5346 C   0  0  0  0  0  0  0  0  0  0  0  0
   -2.1004    1.6981   -4.3620 C   0  0  0  0  0  0  0  0  0  0  0  0
   -1.5761    2.3628   -5.4358 O   0  0  0  0  0  0  0  0  0  0  0  0
   -3.4928    1.5812   -4.2711 C   0  0  0  0  0  0  0  0  0  0  0  0
   -4.0728    0.9427   -3.1752 C   0  0  0  0  0  0  0  0  0  0  0  0
   -1.5320   -3.5356    4.1942 H   0  0  0  0  0  0  0  0  0  0  0  0
   -1.5514   -1.8206    4.7674 H   0  0  0  0  0  0  0  0  0  0  0  0
   -0.1160   -2.8293    4.9801 H   0  0  0  0  0  0  0  0  0  0  0  0
   -3.1378   -2.3477    3.0620 H   0  0  0  0  0  0  0  0  0  0  0  0
   -5.2994   -1.1730    0.6104 H   0  0  0  0  0  0  0  0  0  0  0  0
   -0.0747    0.0851   -1.3937 H   0  0  0  0  0  0  0  0  0  0  0  0
    1.2172   -1.9600    1.4472 H   0  0  0  0  0  0  0  0  0  0  0  0
    2.1056   -0.3484   -0.7761 H   0  0  0  0  0  0  0  0  0  0  0  0
    1.5309   -4.4252   -1.0483 H   0  0  0  0  0  0  0  0  0  0  0  0
    0.0138   -3.7578   -1.6864 H   0  0  0  0  0  0  0  0  0  0  0  0
    0.3961   -3.6313    0.0346 H   0  0  0  0  0  0  0  0  0  0  0  0
    3.0096   -3.0373   -2.6282 H   0  0  0  0  0  0  0  0  0  0  0  0
    1.5279   -2.4414   -3.4107 H   0  0  0  0  0  0  0  0  0  0  0  0
    2.7217   -1.2994   -2.7835 H   0  0  0  0  0  0  0  0  0  0  0  0
    4.2498   -2.4591    3.7630 H   0  0  0  0  0  0  0  0  0  0  0  0
    3.6366   -1.1057    4.7201 H   0  0  0  0  0  0  0  0  0  0  0  0
    4.9131   -0.8485    3.4659 H   0  0  0  0  0  0  0  0  0  0  0  0
    3.7865    1.1312    3.9326 H   0  0  0  0  0  0  0  0  0  0  0  0
    0.9246    5.9471    2.3554 H   0  0  0  0  0  0  0  0  0  0  0  0
   -0.0198    4.0182    1.1341 H   0  0  0  0  0  0  0  0  0  0  0  0
    0.0465    1.5619    0.6987 H   0  0  0  0  0  0  0  0  0  0  0  0
    1.8413    1.1142   -4.3630 H   0  0  0  0  0  0  0  0  0  0  0  0
    0.7887    2.4458   -4.8324 H   0  0  0  0  0  0  0  0  0  0  0  0
    0.4131    0.7406   -5.3258 H   0  0  0  0  0  0  0  0  0  0  0  0
   -2.2980    2.7002   -5.9918 H   0  0  0  0  0  0  0  0  0  0  0  0
   -4.1431    1.9862   -5.0418 H   0  0  0  0  0  0  0  0  0  0  0  0
   -5.1547    0.8539   -3.1045 H   0  0  0  0  0  0  0  0  0  0  0  0
  1  2  1  0
  2  3  1  0
  3  4  1  0
  4  5  2  0
  5  6  1  0
  5  7  1  0
  7  8  1  0
  8  9  2  0
  8 10  1  0
 10 11  2  0
 11 12  1  0
 12 13  1  0
 13 14  1  0
 14 15  1  0
 15 16  1  0
 16 17  2  3
 17 18  1  0
 17 19  1  0
 15 20  1  0
 20 21  2  0
 21 22  1  0
 22 23  1  0
 21 24  1  0
 24 25  2  0
 25 26  1  0
 26 27  1  0
 27 28  2  0
 27 29  1  0
 29 30  2  0
 30 31  1  0
 31 32  2  0
 11 33  1  0
 33 34  1  0
 34 35  1  0
 33 36  2  0
 36 37  1  0
 36 38  1  0
 38 39  2  0
 14  3  2  0
 32 20  1  0
 13  7  2  0
 31 25  1  0
 39 10  1  0
  1 40  1  0
  1 41  1  0
  1 42  1  0
  4 43  1  0
  6 44  1  0
 12 45  1  0
 15 46  1  1
 16 47  1  0
 18 48  1  0
 18 49  1  0
 18 50  1  0
 19 51  1  0
 19 52  1  0
 19 53  1  0
 23 54  1  0
 23 55  1  0
 23 56  1  0
 24 57  1  0
 29 58  1  0
 30 59  1  0
 32 60  1  0
 35 61  1  0
 35 62  1  0
 35 63  1  0
 37 64  1  0
 38 65  1  0
 39 66  1  0
M  END
>  <Name>  (140) 
Acrimarine C

>  <PubChem ID>  (140) 
14192332

>  <CDB ID>  (140) 
CDB0140

>  <Smiles>  (140) 
COC1=CC(O)=C2C(=O)C3=C(NC2=C1[C@@H](C=C(C)C)C1=C(OC)C=C2OC(=O)C=CC2=C1)C(OC)=C(O)C=C3

>  <Chemical class>  (140) 
7-Oxygenated Coumarins

>  <Natural source>  (140) 
Citrus funadoko

>  <Molecular Formula>  (140) 
C30H27NO8

>  <InChI-Key>  (140) 
MKHSQXGFTMXXLB-SFHVURJKSA-N

>  <Total Molweight>  (140) 
529.543

>  <cLogP>  (140) 
5.5414

>  <cLogS>  (140) 
-6.512

>  <H-Acceptors>  (140) 
9

>  <H-Donors>  (140) 
3

>  <Rotatable Bonds>  (140) 
6

>  <Polar Surface Area>  (140) 
123.55

$$$$
CDB0141
     RDKit          3D

 69 73  0  0  0  0  0  0  0  0999 V2000
   -2.3971   -4.0780    1.7391 C   0  0  0  0  0  0  0  0  0  0  0  0
   -1.3104   -3.9055    0.8312 O   0  0  0  0  0  0  0  0  0  0  0  0
   -0.3278   -3.0826    1.3170 C   0  0  0  0  0  0  0  0  0  0  0  0
    0.2869   -3.4078    2.5330 C   0  0  0  0  0  0  0  0  0  0  0  0
    1.2937   -2.6041    3.0430 C   0  0  0  0  0  0  0  0  0  0  0  0
    1.8389   -2.9880    4.2389 O   0  0  0  0  0  0  0  0  0  0  0  0
    1.7003   -1.4669    2.3443 C   0  0  0  0  0  0  0  0  0  0  0  0
    2.7720   -0.5935    2.8926 C   0  0  0  0  0  0  0  0  0  0  0  0
    3.3092   -0.8804    3.9611 O   0  0  0  0  0  0  0  0  0  0  0  0
    3.1807    0.6176    2.1491 C   0  0  0  0  0  0  0  0  0  0  0  0
    2.5369    0.9060    0.9459 C   0  0  0  0  0  0  0  0  0  0  0  0
    1.5465    0.0371    0.4567 N   0  0  0  0  0  0  0  0  0  0  0  0
    1.0987   -1.1256    1.1112 C   0  0  0  0  0  0  0  0  0  0  0  0
    0.0896   -1.9655    0.5552 C   0  0  0  0  0  0  0  0  0  0  0  0
   -0.5299   -1.6128   -0.8110 C   0  0  1  0  0  0  0  0  0  0  0  0
   -1.0205   -2.7713   -1.6740 C   0  0  0  0  0  0  0  0  0  0  0  0
   -2.2553   -3.1495   -2.0690 C   0  0  0  0  0  0  0  0  0  0  0  0
   -2.4284   -4.3216   -3.0008 C   0  0  0  0  0  0  0  0  0  0  0  0
   -3.5460   -2.5271   -1.6204 C   0  0  0  0  0  0  0  0  0  0  0  0
   -1.3722   -0.3265   -0.8826 C   0  0  0  0  0  0  0  0  0  0  0  0
   -2.1444    0.1880    0.1796 C   0  0  0  0  0  0  0  0  0  0  0  0
   -2.2324   -0.5396    1.3356 O   0  0  0  0  0  0  0  0  0  0  0  0
   -2.1599    0.2327    2.5320 C   0  0  0  0  0  0  0  0  0  0  0  0
   -2.8690    1.3744    0.0169 C   0  0  0  0  0  0  0  0  0  0  0  0
   -2.8035    2.0609   -1.1917 C   0  0  0  0  0  0  0  0  0  0  0  0
   -3.5458    3.2535   -1.2987 O   0  0  0  0  0  0  0  0  0  0  0  0
   -3.5383    3.9993   -2.4695 C   0  0  0  0  0  0  0  0  0  0  0  0
   -4.1700    5.0429   -2.5875 O   0  0  0  0  0  0  0  0  0  0  0  0
   -2.7294    3.4803   -3.5867 C   0  0  0  0  0  0  0  0  0  0  0  0
   -2.0257    2.3476   -3.4969 C   0  0  0  0  0  0  0  0  0  0  0  0
   -2.0484    1.5901   -2.2571 C   0  0  0  0  0  0  0  0  0  0  0  0
   -1.3412    0.3976   -2.1014 C   0  0  0  0  0  0  0  0  0  0  0  0
    2.9199    2.0461    0.2147 C   0  0  0  0  0  0  0  0  0  0  0  0
    2.2199    2.2476   -0.9567 O   0  0  0  0  0  0  0  0  0  0  0  0
    3.0455    2.5439   -2.0810 C   0  0  0  0  0  0  0  0  0  0  0  0
    3.8989    2.9247    0.7200 C   0  0  0  0  0  0  0  0  0  0  0  0
    4.1622    4.0537   -0.0093 O   0  0  0  0  0  0  0  0  0  0  0  0
    5.0282    5.0257    0.5629 C   0  0  0  0  0  0  0  0  0  0  0  0
    4.5308    2.6102    1.9307 C   0  0  0  0  0  0  0  0  0  0  0  0
    4.1778    1.4594    2.6424 C   0  0  0  0  0  0  0  0  0  0  0  0
   -2.6582   -3.1474    2.2549 H   0  0  0  0  0  0  0  0  0  0  0  0
   -3.2686   -4.3970    1.1594 H   0  0  0  0  0  0  0  0  0  0  0  0
   -2.1703   -4.8670    2.4627 H   0  0  0  0  0  0  0  0  0  0  0  0
   -0.0033   -4.2989    3.0817 H   0  0  0  0  0  0  0  0  0  0  0  0
    2.5379   -2.3347    4.4717 H   0  0  0  0  0  0  0  0  0  0  0  0
    1.0594    0.3910   -0.3588 H   0  0  0  0  0  0  0  0  0  0  0  0
    0.3718   -1.3354   -1.3860 H   0  0  0  0  0  0  0  0  0  0  0  0
   -0.1870   -3.3709   -2.0455 H   0  0  0  0  0  0  0  0  0  0  0  0
   -1.4713   -4.7419   -3.3270 H   0  0  0  0  0  0  0  0  0  0  0  0
   -2.9758   -4.0122   -3.8973 H   0  0  0  0  0  0  0  0  0  0  0  0
   -2.9906   -5.1208   -2.5065 H   0  0  0  0  0  0  0  0  0  0  0  0
   -4.3333   -3.2863   -1.5501 H   0  0  0  0  0  0  0  0  0  0  0  0
   -3.8740   -1.7660   -2.3345 H   0  0  0  0  0  0  0  0  0  0  0  0
   -3.4718   -2.0881   -0.6248 H   0  0  0  0  0  0  0  0  0  0  0  0
   -1.8801   -0.4420    3.3468 H   0  0  0  0  0  0  0  0  0  0  0  0
   -3.1376    0.6601    2.7738 H   0  0  0  0  0  0  0  0  0  0  0  0
   -1.3958    1.0156    2.4676 H   0  0  0  0  0  0  0  0  0  0  0  0
   -3.5030    1.7630    0.8067 H   0  0  0  0  0  0  0  0  0  0  0  0
   -2.7410    4.0756   -4.4915 H   0  0  0  0  0  0  0  0  0  0  0  0
   -1.4389    1.9825   -4.3323 H   0  0  0  0  0  0  0  0  0  0  0  0
   -0.7569    0.0103   -2.9352 H   0  0  0  0  0  0  0  0  0  0  0  0
    3.1236    3.6262   -2.2183 H   0  0  0  0  0  0  0  0  0  0  0  0
    2.5520    2.1354   -2.9685 H   0  0  0  0  0  0  0  0  0  0  0  0
    4.0380    2.0841   -2.0131 H   0  0  0  0  0  0  0  0  0  0  0  0
    4.6447    5.3831    1.5243 H   0  0  0  0  0  0  0  0  0  0  0  0
    5.0657    5.8811   -0.1186 H   0  0  0  0  0  0  0  0  0  0  0  0
    6.0460    4.6347    0.6611 H   0  0  0  0  0  0  0  0  0  0  0  0
    5.3030    3.2440    2.3557 H   0  0  0  0  0  0  0  0  0  0  0  0
    4.6745    1.2289    3.5826 H   0  0  0  0  0  0  0  0  0  0  0  0
  1  2  1  0
  2  3  1  0
  3  4  1  0
  4  5  2  0
  5  6  1  0
  5  7  1  0
  7  8  1  0
  8  9  2  0
  8 10  1  0
 10 11  2  0
 11 12  1  0
 12 13  1  0
 13 14  1  0
 14 15  1  0
 15 16  1  0
 16 17  2  3
 17 18  1  0
 17 19  1  0
 15 20  1  0
 20 21  2  0
 21 22  1  0
 22 23  1  0
 21 24  1  0
 24 25  2  0
 25 26  1  0
 26 27  1  0
 27 28  2  0
 27 29  1  0
 29 30  2  0
 30 31  1  0
 31 32  2  0
 11 33  1  0
 33 34  1  0
 34 35  1  0
 33 36  2  0
 36 37  1  0
 37 38  1  0
 36 39  1  0
 39 40  2  0
 14  3  2  0
 32 20  1  0
 13  7  2  0
 31 25  1  0
 40 10  1  0
  1 41  1  0
  1 42  1  0
  1 43  1  0
  4 44  1  0
  6 45  1  0
 12 46  1  0
 15 47  1  6
 16 48  1  0
 18 49  1  0
 18 50  1  0
 18 51  1  0
 19 52  1  0
 19 53  1  0
 19 54  1  0
 23 55  1  0
 23 56  1  0
 23 57  1  0
 24 58  1  0
 29 59  1  0
 30 60  1  0
 32 61  1  0
 35 62  1  0
 35 63  1  0
 35 64  1  0
 38 65  1  0
 38 66  1  0
 38 67  1  0
 39 68  1  0
 40 69  1  0
M  END
>  <Name>  (141) 
Acrimarine D

>  <PubChem ID>  (141) 
14886045

>  <CDB ID>  (141) 
CDB0141

>  <Smiles>  (141) 
COC1=CC(O)=C2C(=O)C3=C(NC2=C1[C@@H](C=C(C)C)C1=C(OC)C=C2OC(=O)C=CC2=C1)C(OC)=C(OC)C=C3

>  <Chemical class>  (141) 
7-Oxygenated Coumarins

>  <Natural source>  (141) 
Citrus funadoko

>  <Molecular Formula>  (141) 
C31H29NO8

>  <InChI-Key>  (141) 
CSICEUBOWFUIAN-IBGZPJMESA-N

>  <Total Molweight>  (141) 
543.57

>  <cLogP>  (141) 
5.8171

>  <cLogS>  (141) 
-6.826

>  <H-Acceptors>  (141) 
9

>  <H-Donors>  (141) 
2

>  <Rotatable Bonds>  (141) 
7

>  <Polar Surface Area>  (141) 
112.55

$$$$
CDB0142
     RDKit          3D

 66 70  0  0  0  0  0  0  0  0999 V2000
   -2.0929   -2.1752    3.6469 C   0  0  0  0  0  0  0  0  0  0  0  0
   -2.6203   -2.2258    2.3234 O   0  0  0  0  0  0  0  0  0  0  0  0
   -3.0651   -1.0183    1.8553 C   0  0  0  0  0  0  0  0  0  0  0  0
   -2.6989   -0.5984    0.5607 C   0  0  0  0  0  0  0  0  0  0  0  0
   -1.7714   -1.3578   -0.4059 C   0  0  2  0  0  0  0  0  0  0  0  0
   -1.5432   -2.8379   -0.1522 C   0  0  0  0  0  0  0  0  0  0  0  0
   -2.0915   -3.9025   -0.7756 C   0  0  0  0  0  0  0  0  0  0  0  0
   -3.1224   -3.8423   -1.8678 C   0  0  0  0  0  0  0  0  0  0  0  0
   -1.6996   -5.3009   -0.3741 C   0  0  0  0  0  0  0  0  0  0  0  0
   -0.4406   -0.6296   -0.6599 C   0  0  0  0  0  0  0  0  0  0  0  0
   -0.1001   -0.2051   -1.9601 C   0  0  0  0  0  0  0  0  0  0  0  0
   -0.9664   -0.4155   -3.0054 O   0  0  0  0  0  0  0  0  0  0  0  0
   -0.5240   -1.5191   -3.7997 C   0  0  0  0  0  0  0  0  0  0  0  0
    1.0780    0.5047   -2.2234 C   0  0  0  0  0  0  0  0  0  0  0  0
    1.9793    0.7749   -1.1970 C   0  0  0  0  0  0  0  0  0  0  0  0
    3.1625    1.4725   -1.4495 N   0  0  0  0  0  0  0  0  0  0  0  0
    4.1233    1.7793   -0.4669 C   0  0  0  0  0  0  0  0  0  0  0  0
    3.9052    1.3693    0.8561 C   0  0  0  0  0  0  0  0  0  0  0  0
    4.8366    1.6557    1.8539 C   0  0  0  0  0  0  0  0  0  0  0  0
    5.9968    2.3570    1.5286 C   0  0  0  0  0  0  0  0  0  0  0  0
    6.2268    2.7719    0.2099 C   0  0  0  0  0  0  0  0  0  0  0  0
    7.3831    3.4541   -0.0519 O   0  0  0  0  0  0  0  0  0  0  0  0
    5.2959    2.4903   -0.8023 C   0  0  0  0  0  0  0  0  0  0  0  0
    5.3701    2.8232   -2.1343 O   0  0  0  0  0  0  0  0  0  0  0  0
    6.4934    3.5653   -2.5857 C   0  0  0  0  0  0  0  0  0  0  0  0
    2.6632    0.6248    1.1776 C   0  0  0  0  0  0  0  0  0  0  0  0
    2.4388    0.2496    2.3271 O   0  0  0  0  0  0  0  0  0  0  0  0
    1.6808    0.3310    0.0997 C   0  0  0  0  0  0  0  0  0  0  0  0
    0.4853   -0.3638    0.3660 C   0  0  0  0  0  0  0  0  0  0  0  0
    0.1998   -0.8036    1.6341 O   0  0  0  0  0  0  0  0  0  0  0  0
   -3.2074    0.6432    0.0964 C   0  0  0  0  0  0  0  0  0  0  0  0
   -4.0551    1.4270    0.8801 C   0  0  0  0  0  0  0  0  0  0  0  0
   -4.5802    2.7005    0.4173 C   0  0  0  0  0  0  0  0  0  0  0  0
   -5.3961    3.4007    1.2109 C   0  0  0  0  0  0  0  0  0  0  0  0
   -5.7912    2.9300    2.5503 C   0  0  0  0  0  0  0  0  0  0  0  0
   -6.5422    3.5995    3.2506 O   0  0  0  0  0  0  0  0  0  0  0  0
   -5.2759    1.7104    2.9670 O   0  0  0  0  0  0  0  0  0  0  0  0
   -4.4113    0.9671    2.1396 C   0  0  0  0  0  0  0  0  0  0  0  0
   -3.9370   -0.2436    2.6328 C   0  0  0  0  0  0  0  0  0  0  0  0
   -1.4120   -3.0233    3.7668 H   0  0  0  0  0  0  0  0  0  0  0  0
   -2.8968   -2.2851    4.3812 H   0  0  0  0  0  0  0  0  0  0  0  0
   -1.5234   -1.2578    3.8337 H   0  0  0  0  0  0  0  0  0  0  0  0
   -2.3326   -1.3107   -1.3450 H   0  0  0  0  0  0  0  0  0  0  0  0
   -0.8229   -3.0353    0.6424 H   0  0  0  0  0  0  0  0  0  0  0  0
   -2.6968   -4.2132   -2.8058 H   0  0  0  0  0  0  0  0  0  0  0  0
   -3.9815   -4.4706   -1.6082 H   0  0  0  0  0  0  0  0  0  0  0  0
   -3.5122   -2.8390   -2.0497 H   0  0  0  0  0  0  0  0  0  0  0  0
   -0.9455   -5.3117    0.4199 H   0  0  0  0  0  0  0  0  0  0  0  0
   -1.2843   -5.8380   -1.2331 H   0  0  0  0  0  0  0  0  0  0  0  0
   -2.5737   -5.8500   -0.0088 H   0  0  0  0  0  0  0  0  0  0  0  0
   -1.3295   -1.7739   -4.4948 H   0  0  0  0  0  0  0  0  0  0  0  0
    0.3582   -1.2452   -4.3877 H   0  0  0  0  0  0  0  0  0  0  0  0
   -0.3133   -2.4023   -3.1864 H   0  0  0  0  0  0  0  0  0  0  0  0
    1.2789    0.8484   -3.2342 H   0  0  0  0  0  0  0  0  0  0  0  0
    3.3783    1.8019   -2.3844 H   0  0  0  0  0  0  0  0  0  0  0  0
    4.6614    1.3355    2.8786 H   0  0  0  0  0  0  0  0  0  0  0  0
    6.7122    2.5712    2.3183 H   0  0  0  0  0  0  0  0  0  0  0  0
    7.8956    3.5512    0.7677 H   0  0  0  0  0  0  0  0  0  0  0  0
    7.4198    2.9945   -2.4687 H   0  0  0  0  0  0  0  0  0  0  0  0
    6.3592    3.7438   -3.6574 H   0  0  0  0  0  0  0  0  0  0  0  0
    6.5452    4.5450   -2.1006 H   0  0  0  0  0  0  0  0  0  0  0  0
    0.9315   -0.5260    2.2302 H   0  0  0  0  0  0  0  0  0  0  0  0
   -2.9273    0.9902   -0.8979 H   0  0  0  0  0  0  0  0  0  0  0  0
   -4.3009    3.0634   -0.5655 H   0  0  0  0  0  0  0  0  0  0  0  0
   -5.8097    4.3541    0.9062 H   0  0  0  0  0  0  0  0  0  0  0  0
   -4.2643   -0.5799    3.6109 H   0  0  0  0  0  0  0  0  0  0  0  0
  1  2  1  0
  2  3  1  0
  3  4  2  0
  4  5  1  0
  5  6  1  0
  6  7  2  3
  7  8  1  0
  7  9  1  0
  5 10  1  0
 10 11  1  0
 11 12  1  0
 12 13  1  0
 11 14  2  0
 14 15  1  0
 15 16  1  0
 16 17  1  0
 17 18  2  0
 18 19  1  0
 19 20  2  0
 20 21  1  0
 21 22  1  0
 21 23  2  0
 23 24  1  0
 24 25  1  0
 18 26  1  0
 26 27  2  0
 26 28  1  0
 28 29  1  0
 29 30  1  0
  4 31  1  0
 31 32  2  0
 32 33  1  0
 33 34  2  0
 34 35  1  0
 35 36  2  0
 35 37  1  0
 37 38  1  0
 38 39  2  0
 39  3  1  0
 29 10  2  0
 38 32  1  0
 28 15  2  0
 23 17  1  0
  1 40  1  0
  1 41  1  0
  1 42  1  0
  5 43  1  6
  6 44  1  0
  8 45  1  0
  8 46  1  0
  8 47  1  0
  9 48  1  0
  9 49  1  0
  9 50  1  0
 13 51  1  0
 13 52  1  0
 13 53  1  0
 14 54  1  0
 16 55  1  0
 19 56  1  0
 20 57  1  0
 22 58  1  0
 25 59  1  0
 25 60  1  0
 25 61  1  0
 30 62  1  0
 31 63  1  0
 33 64  1  0
 34 65  1  0
 39 66  1  0
M  END
>  <Name>  (142) 
Acrimarine E

>  <PubChem ID>  (142) 
14886046

>  <CDB ID>  (142) 
CDB0142

>  <Smiles>  (142) 
COC1=C([C@H](C=C(C)C)C2=C(OC)C=C3NC4=C(C=CC(O)=C4OC)C(=O)C3=C2O)C=C2C=CC(=O)OC2=C1

>  <Chemical class>  (142) 
7-Oxygenated Coumarins

>  <Natural source>  (142) 
Citrus funadoko

>  <Molecular Formula>  (142) 
C30H27NO8

>  <InChI-Key>  (142) 
BUGYRWXAPBSPAH-SFHVURJKSA-N

>  <Total Molweight>  (142) 
529.543

>  <cLogP>  (142) 
5.5414

>  <cLogS>  (142) 
-6.512

>  <H-Acceptors>  (142) 
9

>  <H-Donors>  (142) 
3

>  <Rotatable Bonds>  (142) 
6

>  <Polar Surface Area>  (142) 
123.55

$$$$
CDB0143
     RDKit          3D

 69 73  0  0  0  0  0  0  0  0999 V2000
   -4.7364   -1.3609   -3.0507 C   0  0  0  0  0  0  0  0  0  0  0  0
   -4.0260   -1.2064   -1.8293 O   0  0  0  0  0  0  0  0  0  0  0  0
   -3.9723    0.0496   -1.2827 C   0  0  0  0  0  0  0  0  0  0  0  0
   -3.0266    0.2490   -0.2485 C   0  0  0  0  0  0  0  0  0  0  0  0
   -2.0973   -0.8926    0.2076 C   0  0  2  0  0  0  0  0  0  0  0  0
   -2.6456   -1.5764    1.4554 C   0  0  0  0  0  0  0  0  0  0  0  0
   -2.5965   -2.8880    1.7704 C   0  0  0  0  0  0  0  0  0  0  0  0
   -3.2366   -3.3990    3.0333 C   0  0  0  0  0  0  0  0  0  0  0  0
   -1.9204   -3.9459    0.9425 C   0  0  0  0  0  0  0  0  0  0  0  0
   -0.6173   -0.4763    0.2875 C   0  0  0  0  0  0  0  0  0  0  0  0
    0.0069    0.0016    1.4524 C   0  0  0  0  0  0  0  0  0  0  0  0
   -0.7158    0.1534    2.6106 O   0  0  0  0  0  0  0  0  0  0  0  0
   -0.2210   -0.6870    3.6560 C   0  0  0  0  0  0  0  0  0  0  0  0
    1.3467    0.4302    1.4460 C   0  0  0  0  0  0  0  0  0  0  0  0
    2.1354    0.3750    0.2894 C   0  0  0  0  0  0  0  0  0  0  0  0
    1.5336   -0.1460   -0.8652 C   0  0  0  0  0  0  0  0  0  0  0  0
    0.1790   -0.5426   -0.8733 C   0  0  0  0  0  0  0  0  0  0  0  0
   -0.4094   -1.0121   -2.0249 O   0  0  0  0  0  0  0  0  0  0  0  0
    2.3611   -0.2611   -2.0869 C   0  0  0  0  0  0  0  0  0  0  0  0
    1.8398   -0.5924   -3.1505 O   0  0  0  0  0  0  0  0  0  0  0  0
    3.8172   -0.0188   -2.0052 C   0  0  0  0  0  0  0  0  0  0  0  0
    4.3639    0.4722   -0.8036 C   0  0  0  0  0  0  0  0  0  0  0  0
    5.7729    0.5701   -0.7518 C   0  0  0  0  0  0  0  0  0  0  0  0
    6.4057    0.9386    0.4151 O   0  0  0  0  0  0  0  0  0  0  0  0
    6.9127   -0.2177    1.0842 C   0  0  0  0  0  0  0  0  0  0  0  0
    6.5644    0.3075   -1.8862 C   0  0  0  0  0  0  0  0  0  0  0  0
    7.9217    0.4687   -1.8096 O   0  0  0  0  0  0  0  0  0  0  0  0
    5.9875   -0.1213   -3.0753 C   0  0  0  0  0  0  0  0  0  0  0  0
    4.6100   -0.3018   -3.1297 C   0  0  0  0  0  0  0  0  0  0  0  0
    3.4817    0.7983    0.2543 N   0  0  0  0  0  0  0  0  0  0  0  0
    3.9368    1.7511    1.2731 C   0  0  0  0  0  0  0  0  0  0  0  0
   -2.9672    1.5114    0.3848 C   0  0  0  0  0  0  0  0  0  0  0  0
   -3.8023    2.5562   -0.0103 C   0  0  0  0  0  0  0  0  0  0  0  0
   -3.7535    3.8649    0.6199 C   0  0  0  0  0  0  0  0  0  0  0  0
   -4.5815    4.8267    0.2014 C   0  0  0  0  0  0  0  0  0  0  0  0
   -5.5548    4.6136   -0.8842 C   0  0  0  0  0  0  0  0  0  0  0  0
   -6.2997    5.5191   -1.2418 O   0  0  0  0  0  0  0  0  0  0  0  0
   -5.5819    3.3544   -1.4676 O   0  0  0  0  0  0  0  0  0  0  0  0
   -4.7116    2.3331   -1.0355 C   0  0  0  0  0  0  0  0  0  0  0  0
   -4.8122    1.0983   -1.6718 C   0  0  0  0  0  0  0  0  0  0  0  0
   -4.3793   -0.6605   -3.8132 H   0  0  0  0  0  0  0  0  0  0  0  0
   -5.8143   -1.2573   -2.8909 H   0  0  0  0  0  0  0  0  0  0  0  0
   -4.5516   -2.3749   -3.4182 H   0  0  0  0  0  0  0  0  0  0  0  0
   -2.1391   -1.6615   -0.5712 H   0  0  0  0  0  0  0  0  0  0  0  0
   -3.1615   -0.9064    2.1426 H   0  0  0  0  0  0  0  0  0  0  0  0
   -2.4830   -3.8591    3.6808 H   0  0  0  0  0  0  0  0  0  0  0  0
   -3.7233   -2.6020    3.6052 H   0  0  0  0  0  0  0  0  0  0  0  0
   -3.9973   -4.1496    2.7954 H   0  0  0  0  0  0  0  0  0  0  0  0
   -2.6636   -4.6456    0.5468 H   0  0  0  0  0  0  0  0  0  0  0  0
   -1.3546   -3.5436    0.0991 H   0  0  0  0  0  0  0  0  0  0  0  0
   -1.2114   -4.5084    1.5596 H   0  0  0  0  0  0  0  0  0  0  0  0
   -1.0203   -0.8079    4.3933 H   0  0  0  0  0  0  0  0  0  0  0  0
    0.6295   -0.2139    4.1566 H   0  0  0  0  0  0  0  0  0  0  0  0
    0.0567   -1.6823    3.2901 H   0  0  0  0  0  0  0  0  0  0  0  0
    1.7613    0.8103    2.3744 H   0  0  0  0  0  0  0  0  0  0  0  0
    0.2463   -0.9553   -2.7564 H   0  0  0  0  0  0  0  0  0  0  0  0
    7.2703    0.0988    2.0686 H   0  0  0  0  0  0  0  0  0  0  0  0
    6.1287   -0.9683    1.2366 H   0  0  0  0  0  0  0  0  0  0  0  0
    7.7585   -0.6555    0.5450 H   0  0  0  0  0  0  0  0  0  0  0  0
    8.3069    0.3553   -2.6935 H   0  0  0  0  0  0  0  0  0  0  0  0
    6.5878   -0.3371   -3.9536 H   0  0  0  0  0  0  0  0  0  0  0  0
    4.1498   -0.6641   -4.0471 H   0  0  0  0  0  0  0  0  0  0  0  0
    3.1161    2.3675    1.6588 H   0  0  0  0  0  0  0  0  0  0  0  0
    4.6411    2.4858    0.8664 H   0  0  0  0  0  0  0  0  0  0  0  0
    4.3956    1.2254    2.1170 H   0  0  0  0  0  0  0  0  0  0  0  0
   -2.2630    1.6750    1.1963 H   0  0  0  0  0  0  0  0  0  0  0  0
   -3.0436    4.0406    1.4205 H   0  0  0  0  0  0  0  0  0  0  0  0
   -4.5775    5.8157    0.6427 H   0  0  0  0  0  0  0  0  0  0  0  0
   -5.5568    0.9819   -2.4507 H   0  0  0  0  0  0  0  0  0  0  0  0
  1  2  1  0
  2  3  1  0
  3  4  2  0
  4  5  1  0
  5  6  1  0
  6  7  2  3
  7  8  1  0
  7  9  1  0
  5 10  1  0
 10 11  1  0
 11 12  1  0
 12 13  1  0
 11 14  2  0
 14 15  1  0
 15 16  2  0
 16 17  1  0
 17 18  1  0
 16 19  1  0
 19 20  2  0
 19 21  1  0
 21 22  2  0
 22 23  1  0
 23 24  1  0
 24 25  1  0
 23 26  2  0
 26 27  1  0
 26 28  1  0
 28 29  2  0
 22 30  1  0
 30 31  1  0
  4 32  1  0
 32 33  2  0
 33 34  1  0
 34 35  2  0
 35 36  1  0
 36 37  2  0
 36 38  1  0
 38 39  1  0
 39 40  2  0
 40  3  1  0
 17 10  2  0
 29 21  1  0
 39 33  1  0
 30 15  1  0
  1 41  1  0
  1 42  1  0
  1 43  1  0
  5 44  1  6
  6 45  1  0
  8 46  1  0
  8 47  1  0
  8 48  1  0
  9 49  1  0
  9 50  1  0
  9 51  1  0
 13 52  1  0
 13 53  1  0
 13 54  1  0
 14 55  1  0
 18 56  1  0
 25 57  1  0
 25 58  1  0
 25 59  1  0
 27 60  1  0
 28 61  1  0
 29 62  1  0
 31 63  1  0
 31 64  1  0
 31 65  1  0
 32 66  1  0
 34 67  1  0
 35 68  1  0
 40 69  1  0
M  END
>  <Name>  (143) 
Acrimarine F

>  <PubChem ID>  (143) 
5491701

>  <CDB ID>  (143) 
CDB0143

>  <Smiles>  (143) 
COC1=C([C@H](C=C(C)C)C2=C(OC)C=C3C(=C2O)C(=O)C2=C(C(OC)=C(O)C=C2)N3C)C=C2C=CC(=O)OC2=C1

>  <Chemical class>  (143) 
7-Oxygenated Coumarins

>  <Natural source>  (143) 
Citrus funadoko

>  <Molecular Formula>  (143) 
C31H29NO8

>  <InChI-Key>  (143) 
SVXRUUBPUPCCBL-IBGZPJMESA-N

>  <Total Molweight>  (143) 
543.57

>  <cLogP>  (143) 
5.6075

>  <cLogS>  (143) 
-6.99

>  <H-Acceptors>  (143) 
9

>  <H-Donors>  (143) 
2

>  <Rotatable Bonds>  (143) 
6

>  <Polar Surface Area>  (143) 
114.76

$$$$
CDB0144
     RDKit          3D

 65 69  0  0  0  0  0  0  0  0999 V2000
   -3.6692   -1.8139    1.7897 C   0  0  0  0  0  0  0  0  0  0  0  0
   -3.7120   -1.4640    0.4081 O   0  0  0  0  0  0  0  0  0  0  0  0
   -3.6363   -0.1140    0.1934 C   0  0  0  0  0  0  0  0  0  0  0  0
   -2.6671    0.3971   -0.6924 C   0  0  0  0  0  0  0  0  0  0  0  0
   -1.6110   -0.4457   -1.4278 C   0  0  2  0  0  0  0  0  0  0  0  0
   -2.0259   -1.8617   -1.8158 C   0  0  0  0  0  0  0  0  0  0  0  0
   -1.6386   -3.0780   -1.3753 C   0  0  0  0  0  0  0  0  0  0  0  0
   -0.7102   -3.3329   -0.2245 C   0  0  0  0  0  0  0  0  0  0  0  0
   -2.1827   -4.3265   -2.0199 C   0  0  0  0  0  0  0  0  0  0  0  0
   -0.1495   -0.2640   -0.9871 C   0  0  0  0  0  0  0  0  0  0  0  0
    0.8719   -0.3258   -1.9556 C   0  0  0  0  0  0  0  0  0  0  0  0
    0.5287   -0.4897   -3.2775 O   0  0  0  0  0  0  0  0  0  0  0  0
    1.0585   -1.7025   -3.8150 C   0  0  0  0  0  0  0  0  0  0  0  0
    2.2236   -0.1393   -1.6251 C   0  0  0  0  0  0  0  0  0  0  0  0
    2.6340    0.0631   -0.3023 C   0  0  0  0  0  0  0  0  0  0  0  0
    1.6227    0.1313    0.6696 C   0  0  0  0  0  0  0  0  0  0  0  0
    0.2572   -0.0405    0.3388 C   0  0  0  0  0  0  0  0  0  0  0  0
   -0.7024   -0.0019    1.3192 O   0  0  0  0  0  0  0  0  0  0  0  0
    2.0270    0.4053    2.0673 C   0  0  0  0  0  0  0  0  0  0  0  0
    1.1929    0.3413    2.9693 O   0  0  0  0  0  0  0  0  0  0  0  0
    3.4216    0.7959    2.3594 C   0  0  0  0  0  0  0  0  0  0  0  0
    3.7362    1.2411    3.6533 C   0  0  0  0  0  0  0  0  0  0  0  0
    5.0280    1.6566    3.9491 C   0  0  0  0  0  0  0  0  0  0  0  0
    5.9956    1.6436    2.9502 C   0  0  0  0  0  0  0  0  0  0  0  0
    5.6746    1.1951    1.6600 C   0  0  0  0  0  0  0  0  0  0  0  0
    6.6578    1.2676    0.7047 O   0  0  0  0  0  0  0  0  0  0  0  0
    4.3832    0.7258    1.3332 C   0  0  0  0  0  0  0  0  0  0  0  0
    3.9868    0.2240    0.0703 N   0  0  0  0  0  0  0  0  0  0  0  0
    5.0276   -0.2252   -0.8593 C   0  0  0  0  0  0  0  0  0  0  0  0
   -2.6313    1.7997   -0.9015 C   0  0  0  0  0  0  0  0  0  0  0  0
   -3.5394    2.6542   -0.2741 C   0  0  0  0  0  0  0  0  0  0  0  0
   -3.5137    4.0932   -0.4759 C   0  0  0  0  0  0  0  0  0  0  0  0
   -4.4155    4.8590    0.1456 C   0  0  0  0  0  0  0  0  0  0  0  0
   -5.4479    4.2995    1.0360 C   0  0  0  0  0  0  0  0  0  0  0  0
   -6.2608    5.0334    1.5868 O   0  0  0  0  0  0  0  0  0  0  0  0
   -5.4497    2.9229    1.2121 O   0  0  0  0  0  0  0  0  0  0  0  0
   -4.4997    2.1073    0.5663 C   0  0  0  0  0  0  0  0  0  0  0  0
   -4.5658    0.7385    0.8023 C   0  0  0  0  0  0  0  0  0  0  0  0
   -3.3444   -2.8565    1.8598 H   0  0  0  0  0  0  0  0  0  0  0  0
   -2.9568   -1.2010    2.3526 H   0  0  0  0  0  0  0  0  0  0  0  0
   -4.6676   -1.7447    2.2326 H   0  0  0  0  0  0  0  0  0  0  0  0
   -1.6288    0.0454   -2.4168 H   0  0  0  0  0  0  0  0  0  0  0  0
   -2.7522   -1.8474   -2.6304 H   0  0  0  0  0  0  0  0  0  0  0  0
   -0.9720   -4.2695    0.2808 H   0  0  0  0  0  0  0  0  0  0  0  0
    0.3228   -3.4170   -0.5746 H   0  0  0  0  0  0  0  0  0  0  0  0
   -0.7779   -2.5584    0.5398 H   0  0  0  0  0  0  0  0  0  0  0  0
   -1.3605   -4.9471   -2.3912 H   0  0  0  0  0  0  0  0  0  0  0  0
   -2.7601   -4.9088   -1.2943 H   0  0  0  0  0  0  0  0  0  0  0  0
   -2.8399   -4.1075   -2.8680 H   0  0  0  0  0  0  0  0  0  0  0  0
    0.9831   -2.5367   -3.1084 H   0  0  0  0  0  0  0  0  0  0  0  0
    2.0983   -1.5603   -4.1257 H   0  0  0  0  0  0  0  0  0  0  0  0
    0.4730   -1.9577   -4.7032 H   0  0  0  0  0  0  0  0  0  0  0  0
    2.9433   -0.1167   -2.4373 H   0  0  0  0  0  0  0  0  0  0  0  0
   -0.2617    0.1324    2.1880 H   0  0  0  0  0  0  0  0  0  0  0  0
    2.9700    1.2707    4.4256 H   0  0  0  0  0  0  0  0  0  0  0  0
    5.2736    2.0043    4.9493 H   0  0  0  0  0  0  0  0  0  0  0  0
    6.9961    1.9930    3.1904 H   0  0  0  0  0  0  0  0  0  0  0  0
    7.4422    1.6964    1.0845 H   0  0  0  0  0  0  0  0  0  0  0  0
    5.3924    0.6096   -1.4670 H   0  0  0  0  0  0  0  0  0  0  0  0
    5.8643   -0.7023   -0.3363 H   0  0  0  0  0  0  0  0  0  0  0  0
    4.6737   -1.0112   -1.5364 H   0  0  0  0  0  0  0  0  0  0  0  0
   -1.8724    2.2165   -1.5622 H   0  0  0  0  0  0  0  0  0  0  0  0
   -2.7612    4.5238   -1.1268 H   0  0  0  0  0  0  0  0  0  0  0  0
   -4.4317    5.9350    0.0242 H   0  0  0  0  0  0  0  0  0  0  0  0
   -5.3447    0.3456    1.4470 H   0  0  0  0  0  0  0  0  0  0  0  0
  1  2  1  0
  2  3  1  0
  3  4  2  0
  4  5  1  0
  5  6  1  0
  6  7  2  3
  7  8  1  0
  7  9  1  0
  5 10  1  0
 10 11  1  0
 11 12  1  0
 12 13  1  0
 11 14  2  0
 14 15  1  0
 15 16  2  0
 16 17  1  0
 17 18  1  0
 16 19  1  0
 19 20  2  0
 19 21  1  0
 21 22  2  0
 22 23  1  0
 23 24  2  0
 24 25  1  0
 25 26  1  0
 25 27  2  0
 27 28  1  0
 28 29  1  0
  4 30  1  0
 30 31  2  0
 31 32  1  0
 32 33  2  0
 33 34  1  0
 34 35  2  0
 34 36  1  0
 36 37  1  0
 37 38  2  0
 38  3  1  0
 17 10  2  0
 27 21  1  0
 37 31  1  0
 28 15  1  0
  1 39  1  0
  1 40  1  0
  1 41  1  0
  5 42  1  6
  6 43  1  0
  8 44  1  0
  8 45  1  0
  8 46  1  0
  9 47  1  0
  9 48  1  0
  9 49  1  0
 13 50  1  0
 13 51  1  0
 13 52  1  0
 14 53  1  0
 18 54  1  0
 22 55  1  0
 23 56  1  0
 24 57  1  0
 26 58  1  0
 29 59  1  0
 29 60  1  0
 29 61  1  0
 30 62  1  0
 32 63  1  0
 33 64  1  0
 38 65  1  0
M  END
>  <Name>  (144) 
Acrimarine H

>  <PubChem ID>  (144) 
14702537

>  <CDB ID>  (144) 
CDB0144

>  <Smiles>  (144) 
COC1=C([C@H](C=C(C)C)C2=C(OC)C=C3C(=C2O)C(=O)C2=CC=CC(O)=C2N3C)C=C2C=CC(=O)OC2=C1

>  <Chemical class>  (144) 
7-Oxygenated Coumarins

>  <Natural source>  (144) 
Citrus unshiu x C. sinensis

>  <Molecular Formula>  (144) 
C30H27NO7

>  <InChI-Key>  (144) 
LUTVFOXEXBZKQE-IBGZPJMESA-N

>  <Total Molweight>  (144) 
513.544

>  <cLogP>  (144) 
5.6775

>  <cLogS>  (144) 
-6.972

>  <H-Acceptors>  (144) 
8

>  <H-Donors>  (144) 
2

>  <Rotatable Bonds>  (144) 
5

>  <Polar Surface Area>  (144) 
105.53

$$$$
CDB0145
     RDKit          3D

 73 78  0  0  0  0  0  0  0  0999 V2000
   -2.0008    1.8290   -4.4062 C   0  0  0  0  0  0  0  0  0  0  0  0
   -2.4348    0.5863   -3.8528 O   0  0  0  0  0  0  0  0  0  0  0  0
   -2.9452    0.7515   -2.5906 C   0  0  0  0  0  0  0  0  0  0  0  0
   -2.3006    0.1335   -1.5003 C   0  0  0  0  0  0  0  0  0  0  0  0
   -1.0143   -0.6847   -1.6999 C   0  0  2  0  0  0  0  0  0  0  0  0
   -1.3169   -2.1766   -1.7832 C   0  0  0  0  0  0  0  0  0  0  0  0
   -0.6711   -3.1117   -2.5113 C   0  0  0  0  0  0  0  0  0  0  0  0
    0.5331   -2.8496   -3.3726 C   0  0  0  0  0  0  0  0  0  0  0  0
   -1.1248   -4.5467   -2.4933 C   0  0  0  0  0  0  0  0  0  0  0  0
    0.1108   -0.2939   -0.7198 C   0  0  0  0  0  0  0  0  0  0  0  0
    0.3375   -0.9386    0.5168 C   0  0  0  0  0  0  0  0  0  0  0  0
   -0.5160   -1.9624    0.8407 O   0  0  0  0  0  0  0  0  0  0  0  0
   -0.4612   -2.5823    2.1352 C   0  0  0  0  0  0  0  0  0  0  0  0
   -1.6195   -2.0287    2.9717 C   0  0  0  0  0  0  0  0  0  0  0  0
   -0.6777   -4.0794    1.8822 C   0  0  0  0  0  0  0  0  0  0  0  0
    0.8407   -2.3805    2.8557 C   0  0  0  0  0  0  0  0  0  0  0  0
    1.7175   -1.4428    2.4916 C   0  0  0  0  0  0  0  0  0  0  0  0
    1.3986   -0.5532    1.3695 C   0  0  0  0  0  0  0  0  0  0  0  0
    2.1890    0.5829    1.0644 C   0  0  0  0  0  0  0  0  0  0  0  0
    1.9992    1.1831   -0.1943 C   0  0  0  0  0  0  0  0  0  0  0  0
    0.9696    0.7666   -1.0594 C   0  0  0  0  0  0  0  0  0  0  0  0
    0.7685    1.3904   -2.2694 O   0  0  0  0  0  0  0  0  0  0  0  0
    2.9310    2.2597   -0.6099 C   0  0  0  0  0  0  0  0  0  0  0  0
    2.7319    2.8727   -1.6578 O   0  0  0  0  0  0  0  0  0  0  0  0
    4.1149    2.5600    0.2188 C   0  0  0  0  0  0  0  0  0  0  0  0
    5.1005    3.4249   -0.2786 C   0  0  0  0  0  0  0  0  0  0  0  0
    6.2187    3.7179    0.4948 C   0  0  0  0  0  0  0  0  0  0  0  0
    6.3527    3.1451    1.7569 C   0  0  0  0  0  0  0  0  0  0  0  0
    5.3605    2.2865    2.2473 C   0  0  0  0  0  0  0  0  0  0  0  0
    5.5486    1.7150    3.4801 O   0  0  0  0  0  0  0  0  0  0  0  0
    4.2062    1.9849    1.4958 C   0  0  0  0  0  0  0  0  0  0  0  0
    3.1609    1.1381    1.9370 N   0  0  0  0  0  0  0  0  0  0  0  0
    2.8092    1.2580    3.3603 C   0  0  0  0  0  0  0  0  0  0  0  0
   -2.8862    0.2652   -0.2231 C   0  0  0  0  0  0  0  0  0  0  0  0
   -4.0655    0.9919   -0.0392 C   0  0  0  0  0  0  0  0  0  0  0  0
   -4.6803    1.1425    1.2694 C   0  0  0  0  0  0  0  0  0  0  0  0
   -5.8138    1.8407    1.3856 C   0  0  0  0  0  0  0  0  0  0  0  0
   -6.4760    2.4717    0.2301 C   0  0  0  0  0  0  0  0  0  0  0  0
   -7.5142    3.1066    0.3768 O   0  0  0  0  0  0  0  0  0  0  0  0
   -5.8707    2.3107   -1.0084 O   0  0  0  0  0  0  0  0  0  0  0  0
   -4.6742    1.5795   -1.1426 C   0  0  0  0  0  0  0  0  0  0  0  0
   -4.1362    1.4618   -2.4186 C   0  0  0  0  0  0  0  0  0  0  0  0
   -1.4621    2.4407   -3.6736 H   0  0  0  0  0  0  0  0  0  0  0  0
   -2.8511    2.3845   -4.8143 H   0  0  0  0  0  0  0  0  0  0  0  0
   -1.3160    1.6067   -5.2300 H   0  0  0  0  0  0  0  0  0  0  0  0
   -0.6379   -0.4297   -2.6970 H   0  0  0  0  0  0  0  0  0  0  0  0
   -2.1731   -2.4964   -1.1908 H   0  0  0  0  0  0  0  0  0  0  0  0
    0.9076   -1.8261   -3.2984 H   0  0  0  0  0  0  0  0  0  0  0  0
    1.3549   -3.5119   -3.0800 H   0  0  0  0  0  0  0  0  0  0  0  0
    0.2925   -3.0423   -4.4232 H   0  0  0  0  0  0  0  0  0  0  0  0
   -0.3257   -5.1923   -2.1146 H   0  0  0  0  0  0  0  0  0  0  0  0
   -1.3876   -4.8735   -3.5047 H   0  0  0  0  0  0  0  0  0  0  0  0
   -2.0028   -4.6978   -1.8564 H   0  0  0  0  0  0  0  0  0  0  0  0
   -2.5767   -2.1758    2.4577 H   0  0  0  0  0  0  0  0  0  0  0  0
   -1.5150   -0.9476    3.1225 H   0  0  0  0  0  0  0  0  0  0  0  0
   -1.6790   -2.5076    3.9552 H   0  0  0  0  0  0  0  0  0  0  0  0
   -0.7084   -4.6540    2.8145 H   0  0  0  0  0  0  0  0  0  0  0  0
    0.1203   -4.4889    1.2508 H   0  0  0  0  0  0  0  0  0  0  0  0
   -1.6157   -4.2519    1.3409 H   0  0  0  0  0  0  0  0  0  0  0  0
    1.0728   -3.0342    3.6919 H   0  0  0  0  0  0  0  0  0  0  0  0
    2.6771   -1.3589    2.9868 H   0  0  0  0  0  0  0  0  0  0  0  0
    1.4327    2.1112   -2.3615 H   0  0  0  0  0  0  0  0  0  0  0  0
    4.9955    3.8663   -1.2675 H   0  0  0  0  0  0  0  0  0  0  0  0
    6.9856    4.3864    0.1111 H   0  0  0  0  0  0  0  0  0  0  0  0
    7.2362    3.3762    2.3453 H   0  0  0  0  0  0  0  0  0  0  0  0
    6.4416    1.9297    3.7962 H   0  0  0  0  0  0  0  0  0  0  0  0
    3.3895    0.5582    3.9702 H   0  0  0  0  0  0  0  0  0  0  0  0
    2.9811    2.2759    3.7331 H   0  0  0  0  0  0  0  0  0  0  0  0
    1.7449    1.0716    3.5466 H   0  0  0  0  0  0  0  0  0  0  0  0
   -2.4185   -0.2100    0.6336 H   0  0  0  0  0  0  0  0  0  0  0  0
   -4.2088    0.6854    2.1320 H   0  0  0  0  0  0  0  0  0  0  0  0
   -6.3049    1.9777    2.3411 H   0  0  0  0  0  0  0  0  0  0  0  0
   -4.6487    1.9025   -3.2672 H   0  0  0  0  0  0  0  0  0  0  0  0
  1  2  1  0
  2  3  1  0
  3  4  2  0
  4  5  1  0
  5  6  1  0
  6  7  2  3
  7  8  1  0
  7  9  1  0
  5 10  1  0
 10 11  2  0
 11 12  1  0
 12 13  1  0
 13 14  1  0
 13 15  1  0
 13 16  1  0
 16 17  2  0
 17 18  1  0
 18 19  2  0
 19 20  1  0
 20 21  2  0
 21 22  1  0
 20 23  1  0
 23 24  2  0
 23 25  1  0
 25 26  2  0
 26 27  1  0
 27 28  2  0
 28 29  1  0
 29 30  1  0
 29 31  2  0
 31 32  1  0
 32 33  1  0
  4 34  1  0
 34 35  2  0
 35 36  1  0
 36 37  2  0
 37 38  1  0
 38 39  2  0
 38 40  1  0
 40 41  1  0
 41 42  2  0
 42  3  1  0
 21 10  1  0
 31 25  1  0
 41 35  1  0
 18 11  1  0
 32 19  1  0
  1 43  1  0
  1 44  1  0
  1 45  1  0
  5 46  1  6
  6 47  1  0
  8 48  1  0
  8 49  1  0
  8 50  1  0
  9 51  1  0
  9 52  1  0
  9 53  1  0
 14 54  1  0
 14 55  1  0
 14 56  1  0
 15 57  1  0
 15 58  1  0
 15 59  1  0
 16 60  1  0
 17 61  1  0
 22 62  1  0
 26 63  1  0
 27 64  1  0
 28 65  1  0
 30 66  1  0
 33 67  1  0
 33 68  1  0
 33 69  1  0
 34 70  1  0
 36 71  1  0
 37 72  1  0
 42 73  1  0
M  END
>  <Name>  (145) 
Acrimarine I

>  <PubChem ID>  (145) 
102145465

>  <CDB ID>  (145) 
CDB0145

>  <Smiles>  (145) 
COC1=C([C@H](C=C(C)C)C2=C3OC(C)(C)C=CC3=C3C(=C2O)C(=O)C2=CC=CC(O)=C2N3C)C=C2C=CC(=O)OC2=C1

>  <Chemical class>  (145) 
7-Oxygenated Coumarins

>  <Natural source>  (145) 
Ortus paradisi x C. tangerina

>  <Molecular Formula>  (145) 
C34H31NO7

>  <InChI-Key>  (145) 
GSUYTELQWICLMF-QFIPXVFZSA-N

>  <Total Molweight>  (145) 
565.62

>  <cLogP>  (145) 
6.7742

>  <cLogS>  (145) 
-8.213

>  <H-Acceptors>  (145) 
8

>  <H-Donors>  (145) 
2

>  <Rotatable Bonds>  (145) 
4

>  <Polar Surface Area>  (145) 
105.53

$$$$
CDB0146
     RDKit          3D

 77 82  0  0  0  0  0  0  0  0999 V2000
   -5.4028   -0.9438   -3.2371 C   0  0  0  0  0  0  0  0  0  0  0  0
   -4.1645   -0.8708   -2.5445 O   0  0  0  0  0  0  0  0  0  0  0  0
   -4.0580    0.0245   -1.5107 C   0  0  0  0  0  0  0  0  0  0  0  0
   -2.8298    0.0161   -0.8003 C   0  0  0  0  0  0  0  0  0  0  0  0
   -1.7133   -0.9646   -1.1998 C   0  0  2  0  0  0  0  0  0  0  0  0
   -1.9476   -2.4496   -0.9130 C   0  0  0  0  0  0  0  0  0  0  0  0
   -2.7631   -3.1118   -0.0642 C   0  0  0  0  0  0  0  0  0  0  0  0
   -3.6639   -2.4887    0.9621 C   0  0  0  0  0  0  0  0  0  0  0  0
   -2.8120   -4.6184   -0.0870 C   0  0  0  0  0  0  0  0  0  0  0  0
   -0.2767   -0.5036   -0.8676 C   0  0  0  0  0  0  0  0  0  0  0  0
    0.3480   -0.7717    0.3706 C   0  0  0  0  0  0  0  0  0  0  0  0
   -0.3936   -1.4664    1.2917 O   0  0  0  0  0  0  0  0  0  0  0  0
    0.0614   -1.5744    2.6505 C   0  0  0  0  0  0  0  0  0  0  0  0
   -0.6698   -0.5156    3.4827 C   0  0  0  0  0  0  0  0  0  0  0  0
   -0.3541   -2.9746    3.1188 C   0  0  0  0  0  0  0  0  0  0  0  0
    1.5496   -1.4236    2.8035 C   0  0  0  0  0  0  0  0  0  0  0  0
    2.3084   -0.8690    1.8558 C   0  0  0  0  0  0  0  0  0  0  0  0
    1.6709   -0.3525    0.6401 C   0  0  0  0  0  0  0  0  0  0  0  0
    2.3715    0.4493   -0.2942 C   0  0  0  0  0  0  0  0  0  0  0  0
    1.7660    0.6733   -1.5455 C   0  0  0  0  0  0  0  0  0  0  0  0
    0.4603    0.2240   -1.8188 C   0  0  0  0  0  0  0  0  0  0  0  0
   -0.1390    0.4887   -3.0273 O   0  0  0  0  0  0  0  0  0  0  0  0
    2.5441    1.3857   -2.5896 C   0  0  0  0  0  0  0  0  0  0  0  0
    2.0057    1.6980   -3.6499 O   0  0  0  0  0  0  0  0  0  0  0  0
    3.9733    1.6796   -2.3613 C   0  0  0  0  0  0  0  0  0  0  0  0
    4.5055    1.4673   -1.0789 C   0  0  0  0  0  0  0  0  0  0  0  0
    5.8811    1.7148   -0.9112 C   0  0  0  0  0  0  0  0  0  0  0  0
    6.5368    1.4662    0.2743 O   0  0  0  0  0  0  0  0  0  0  0  0
    6.8555    0.0723    0.3617 C   0  0  0  0  0  0  0  0  0  0  0  0
    6.6498    2.2446   -1.9563 C   0  0  0  0  0  0  0  0  0  0  0  0
    7.9714    2.5382   -1.7679 O   0  0  0  0  0  0  0  0  0  0  0  0
    6.0975    2.4771   -3.2063 C   0  0  0  0  0  0  0  0  0  0  0  0
    4.7531    2.1829   -3.4155 C   0  0  0  0  0  0  0  0  0  0  0  0
    3.6459    1.0232   -0.0456 N   0  0  0  0  0  0  0  0  0  0  0  0
    3.8272    1.7141    1.2436 C   0  0  0  0  0  0  0  0  0  0  0  0
   -2.6649    0.9228    0.2708 C   0  0  0  0  0  0  0  0  0  0  0  0
   -3.6815    1.8064    0.6346 C   0  0  0  0  0  0  0  0  0  0  0  0
   -3.5331    2.7414    1.7375 C   0  0  0  0  0  0  0  0  0  0  0  0
   -4.5422    3.5628    2.0421 C   0  0  0  0  0  0  0  0  0  0  0  0
   -5.8147    3.5601    1.2992 C   0  0  0  0  0  0  0  0  0  0  0  0
   -6.7205    4.3251    1.6099 O   0  0  0  0  0  0  0  0  0  0  0  0
   -5.9291    2.6588    0.2499 O   0  0  0  0  0  0  0  0  0  0  0  0
   -4.8713    1.7875   -0.0799 C   0  0  0  0  0  0  0  0  0  0  0  0
   -5.0735    0.9139   -1.1448 C   0  0  0  0  0  0  0  0  0  0  0  0
   -6.2178   -1.2258   -2.5624 H   0  0  0  0  0  0  0  0  0  0  0  0
   -5.3149   -1.7267   -3.9965 H   0  0  0  0  0  0  0  0  0  0  0  0
   -5.6213   -0.0035   -3.7535 H   0  0  0  0  0  0  0  0  0  0  0  0
   -1.7522   -0.9562   -2.2991 H   0  0  0  0  0  0  0  0  0  0  0  0
   -1.3446   -3.0652   -1.5837 H   0  0  0  0  0  0  0  0  0  0  0  0
   -3.7502   -3.1377    1.8408 H   0  0  0  0  0  0  0  0  0  0  0  0
   -3.2818   -1.5385    1.3357 H   0  0  0  0  0  0  0  0  0  0  0  0
   -4.6683   -2.3447    0.5529 H   0  0  0  0  0  0  0  0  0  0  0  0
   -2.4824   -5.0234    0.8755 H   0  0  0  0  0  0  0  0  0  0  0  0
   -2.1705   -5.0475   -0.8639 H   0  0  0  0  0  0  0  0  0  0  0  0
   -3.8350   -4.9596   -0.2778 H   0  0  0  0  0  0  0  0  0  0  0  0
   -0.4186    0.4964    3.1432 H   0  0  0  0  0  0  0  0  0  0  0  0
   -1.7559   -0.6152    3.3729 H   0  0  0  0  0  0  0  0  0  0  0  0
   -0.4218   -0.5901    4.5471 H   0  0  0  0  0  0  0  0  0  0  0  0
    0.1108   -3.7495    2.4971 H   0  0  0  0  0  0  0  0  0  0  0  0
   -0.0773   -3.1578    4.1629 H   0  0  0  0  0  0  0  0  0  0  0  0
   -1.4369   -3.1135    3.0247 H   0  0  0  0  0  0  0  0  0  0  0  0
    2.0128   -1.7916    3.7147 H   0  0  0  0  0  0  0  0  0  0  0  0
    3.3847   -0.8214    1.9620 H   0  0  0  0  0  0  0  0  0  0  0  0
    0.4781    1.0226   -3.5780 H   0  0  0  0  0  0  0  0  0  0  0  0
    7.4850   -0.2428   -0.4780 H   0  0  0  0  0  0  0  0  0  0  0  0
    7.4221   -0.0805    1.2851 H   0  0  0  0  0  0  0  0  0  0  0  0
    5.9531   -0.5455    0.4138 H   0  0  0  0  0  0  0  0  0  0  0  0
    8.1414    2.4067   -0.8159 H   0  0  0  0  0  0  0  0  0  0  0  0
    6.7073    2.8788   -4.0104 H   0  0  0  0  0  0  0  0  0  0  0  0
    4.3102    2.3530   -4.3948 H   0  0  0  0  0  0  0  0  0  0  0  0
    4.1987    2.7375    1.1040 H   0  0  0  0  0  0  0  0  0  0  0  0
    2.8871    1.8264    1.7966 H   0  0  0  0  0  0  0  0  0  0  0  0
    4.5338    1.1740    1.8815 H   0  0  0  0  0  0  0  0  0  0  0  0
   -1.7382    0.9348    0.8356 H   0  0  0  0  0  0  0  0  0  0  0  0
   -2.6039    2.7589    2.2958 H   0  0  0  0  0  0  0  0  0  0  0  0
   -4.4737    4.2753    2.8549 H   0  0  0  0  0  0  0  0  0  0  0  0
   -6.0235    0.9525   -1.6649 H   0  0  0  0  0  0  0  0  0  0  0  0
  1  2  1  0
  2  3  1  0
  3  4  2  0
  4  5  1  0
  5  6  1  0
  6  7  2  3
  7  8  1  0
  7  9  1  0
  5 10  1  0
 10 11  2  0
 11 12  1  0
 12 13  1  0
 13 14  1  0
 13 15  1  0
 13 16  1  0
 16 17  2  0
 17 18  1  0
 18 19  2  0
 19 20  1  0
 20 21  2  0
 21 22  1  0
 20 23  1  0
 23 24  2  0
 23 25  1  0
 25 26  2  0
 26 27  1  0
 27 28  1  0
 28 29  1  0
 27 30  2  0
 30 31  1  0
 30 32  1  0
 32 33  2  0
 26 34  1  0
 34 35  1  0
  4 36  1  0
 36 37  2  0
 37 38  1  0
 38 39  2  0
 39 40  1  0
 40 41  2  0
 40 42  1  0
 42 43  1  0
 43 44  2  0
 44  3  1  0
 21 10  1  0
 33 25  1  0
 43 37  1  0
 18 11  1  0
 34 19  1  0
  1 45  1  0
  1 46  1  0
  1 47  1  0
  5 48  1  6
  6 49  1  0
  8 50  1  0
  8 51  1  0
  8 52  1  0
  9 53  1  0
  9 54  1  0
  9 55  1  0
 14 56  1  0
 14 57  1  0
 14 58  1  0
 15 59  1  0
 15 60  1  0
 15 61  1  0
 16 62  1  0
 17 63  1  0
 22 64  1  0
 29 65  1  0
 29 66  1  0
 29 67  1  0
 31 68  1  0
 32 69  1  0
 33 70  1  0
 35 71  1  0
 35 72  1  0
 35 73  1  0
 36 74  1  0
 38 75  1  0
 39 76  1  0
 44 77  1  0
M  END
>  <Name>  (146) 
Acrimarine J

>  <PubChem ID>  (146) 
131752805

>  <CDB ID>  (146) 
CDB0146

>  <Smiles>  (146) 
COC1=C([C@H](C=C(C)C)C2=C3OC(C)(C)C=CC3=C3C(=C2O)C(=O)C2=C(C(OC)=C(O)C=C2)N3C)C=C2C=CC(=O)OC2=C1

>  <Chemical class>  (146) 
7-Oxygenated Coumarins

>  <Natural source>  (146) 
Citrus paradisi x C. tangerina

>  <Molecular Formula>  (146) 
C35H33NO8

>  <InChI-Key>  (146) 
ZWXOIPZATSFFPY-QFIPXVFZSA-N

>  <Total Molweight>  (146) 
595.646

>  <cLogP>  (146) 
6.7042

>  <cLogS>  (146) 
-8.231

>  <H-Acceptors>  (146) 
9

>  <H-Donors>  (146) 
2

>  <Rotatable Bonds>  (146) 
5

>  <Polar Surface Area>  (146) 
114.76

$$$$
CDB0147
     RDKit          3D

 72 76  0  0  0  0  0  0  0  0999 V2000
    8.0393   -0.8457   -3.1203 C   0  0  0  0  0  0  0  0  0  0  0  0
    7.2223   -0.0266   -2.2944 O   0  0  0  0  0  0  0  0  0  0  0  0
    5.9838   -0.5076   -1.9517 C   0  0  0  0  0  0  0  0  0  0  0  0
    5.2467    0.2673   -1.0248 C   0  0  0  0  0  0  0  0  0  0  0  0
    5.8022    1.4555   -0.5928 O   0  0  0  0  0  0  0  0  0  0  0  0
    5.5142    2.4941   -1.5321 C   0  0  0  0  0  0  0  0  0  0  0  0
    3.9827   -0.1426   -0.5384 C   0  0  0  0  0  0  0  0  0  0  0  0
    3.4355   -1.2956   -1.1277 C   0  0  0  0  0  0  0  0  0  0  0  0
    4.1423   -2.0586   -2.0678 C   0  0  0  0  0  0  0  0  0  0  0  0
    5.4208   -1.6742   -2.4650 C   0  0  0  0  0  0  0  0  0  0  0  0
    2.0648   -1.7113   -0.7618 C   0  0  0  0  0  0  0  0  0  0  0  0
    1.5929   -2.7646   -1.1873 O   0  0  0  0  0  0  0  0  0  0  0  0
    1.2385   -0.8268    0.0896 C   0  0  0  0  0  0  0  0  0  0  0  0
   -0.1321   -1.0975    0.2927 C   0  0  0  0  0  0  0  0  0  0  0  0
   -0.7176   -2.2132   -0.2656 O   0  0  0  0  0  0  0  0  0  0  0  0
   -0.9488   -0.2496    1.0704 C   0  0  0  0  0  0  0  0  0  0  0  0
   -2.4449   -0.5745    1.1940 C   0  0  1  0  0  0  0  0  0  0  0  0
   -3.1548   -0.0919    2.4511 C   0  0  0  0  0  0  0  0  0  0  0  0
   -3.3212   -0.7428    3.6222 C   0  0  0  0  0  0  0  0  0  0  0  0
   -4.0991   -0.1079    4.7446 C   0  0  0  0  0  0  0  0  0  0  0  0
   -2.7628   -2.1010    3.9444 C   0  0  0  0  0  0  0  0  0  0  0  0
   -3.2533   -0.2527   -0.0802 C   0  0  0  0  0  0  0  0  0  0  0  0
   -3.4235    1.0557   -0.5853 C   0  0  0  0  0  0  0  0  0  0  0  0
   -2.8607    2.0715    0.1357 O   0  0  0  0  0  0  0  0  0  0  0  0
   -2.7362    3.3398   -0.4919 C   0  0  0  0  0  0  0  0  0  0  0  0
   -4.1691    1.2607   -1.7515 C   0  0  0  0  0  0  0  0  0  0  0  0
   -4.7298    0.1708   -2.4134 C   0  0  0  0  0  0  0  0  0  0  0  0
   -5.4673    0.4369   -3.5848 O   0  0  0  0  0  0  0  0  0  0  0  0
   -6.0574   -0.5901   -4.3086 C   0  0  0  0  0  0  0  0  0  0  0  0
   -6.7026   -0.3857   -5.3307 O   0  0  0  0  0  0  0  0  0  0  0  0
   -5.8774   -1.9594   -3.7951 C   0  0  0  0  0  0  0  0  0  0  0  0
   -5.1828   -2.2218   -2.6840 C   0  0  0  0  0  0  0  0  0  0  0  0
   -4.5769   -1.1269   -1.9454 C   0  0  0  0  0  0  0  0  0  0  0  0
   -3.8425   -1.3339   -0.7786 C   0  0  0  0  0  0  0  0  0  0  0  0
   -0.3183    0.8605    1.6563 C   0  0  0  0  0  0  0  0  0  0  0  0
   -1.0342    1.7651    2.3996 O   0  0  0  0  0  0  0  0  0  0  0  0
   -0.6277    1.7591    3.7688 C   0  0  0  0  0  0  0  0  0  0  0  0
    1.0450    1.1329    1.4376 C   0  0  0  0  0  0  0  0  0  0  0  0
    1.8577    0.2863    0.6739 C   0  0  0  0  0  0  0  0  0  0  0  0
    3.2322    0.5259    0.4580 N   0  0  0  0  0  0  0  0  0  0  0  0
    3.9426    1.3809    1.4155 C   0  0  0  0  0  0  0  0  0  0  0  0
    7.6018   -0.9571   -4.1177 H   0  0  0  0  0  0  0  0  0  0  0  0
    8.2228   -1.8204   -2.6562 H   0  0  0  0  0  0  0  0  0  0  0  0
    9.0055   -0.3451   -3.2357 H   0  0  0  0  0  0  0  0  0  0  0  0
    6.0249    2.3271   -2.4859 H   0  0  0  0  0  0  0  0  0  0  0  0
    5.8850    3.4338   -1.1120 H   0  0  0  0  0  0  0  0  0  0  0  0
    4.4352    2.5993   -1.6925 H   0  0  0  0  0  0  0  0  0  0  0  0
    3.6949   -2.9549   -2.4936 H   0  0  0  0  0  0  0  0  0  0  0  0
    5.9370   -2.2951   -3.1895 H   0  0  0  0  0  0  0  0  0  0  0  0
   -0.0234   -2.7114   -0.7549 H   0  0  0  0  0  0  0  0  0  0  0  0
   -2.4788   -1.6683    1.2837 H   0  0  0  0  0  0  0  0  0  0  0  0
   -3.5930    0.9018    2.3563 H   0  0  0  0  0  0  0  0  0  0  0  0
   -4.4957    0.8759    4.4726 H   0  0  0  0  0  0  0  0  0  0  0  0
   -4.9468   -0.7423    5.0233 H   0  0  0  0  0  0  0  0  0  0  0  0
   -3.4584    0.0240    5.6227 H   0  0  0  0  0  0  0  0  0  0  0  0
   -2.0665   -2.4755    3.1906 H   0  0  0  0  0  0  0  0  0  0  0  0
   -2.2113   -2.0652    4.8903 H   0  0  0  0  0  0  0  0  0  0  0  0
   -3.5755   -2.8272    4.0472 H   0  0  0  0  0  0  0  0  0  0  0  0
   -3.7146    3.8180   -0.6022 H   0  0  0  0  0  0  0  0  0  0  0  0
   -2.2225    3.2613   -1.4560 H   0  0  0  0  0  0  0  0  0  0  0  0
   -2.1275    3.9755    0.1583 H   0  0  0  0  0  0  0  0  0  0  0  0
   -4.3384    2.2504   -2.1597 H   0  0  0  0  0  0  0  0  0  0  0  0
   -6.3438   -2.7456   -4.3758 H   0  0  0  0  0  0  0  0  0  0  0  0
   -5.0594   -3.2366   -2.3222 H   0  0  0  0  0  0  0  0  0  0  0  0
   -3.7064   -2.3472   -0.4041 H   0  0  0  0  0  0  0  0  0  0  0  0
    0.2789    2.3576    3.9032 H   0  0  0  0  0  0  0  0  0  0  0  0
   -1.4262    2.2219    4.3566 H   0  0  0  0  0  0  0  0  0  0  0  0
   -0.4722    0.7425    4.1481 H   0  0  0  0  0  0  0  0  0  0  0  0
    1.4470    2.0531    1.8515 H   0  0  0  0  0  0  0  0  0  0  0  0
    4.9627    1.0286    1.6065 H   0  0  0  0  0  0  0  0  0  0  0  0
    3.4744    1.3678    2.4071 H   0  0  0  0  0  0  0  0  0  0  0  0
    3.9682    2.4176    1.0643 H   0  0  0  0  0  0  0  0  0  0  0  0
  1  2  1  0
  2  3  1  0
  3  4  2  0
  4  5  1  0
  5  6  1  0
  4  7  1  0
  7  8  2  0
  8  9  1  0
  9 10  2  0
  8 11  1  0
 11 12  2  0
 11 13  1  0
 13 14  1  0
 14 15  1  0
 14 16  2  0
 16 17  1  0
 17 18  1  0
 18 19  2  3
 19 20  1  0
 19 21  1  0
 17 22  1  0
 22 23  2  0
 23 24  1  0
 24 25  1  0
 23 26  1  0
 26 27  2  0
 27 28  1  0
 28 29  1  0
 29 30  2  0
 29 31  1  0
 31 32  2  0
 32 33  1  0
 33 34  2  0
 16 35  1  0
 35 36  1  0
 36 37  1  0
 35 38  2  0
 38 39  1  0
 39 40  1  0
 40 41  1  0
 10  3  1  0
 39 13  2  0
 40  7  1  0
 34 22  1  0
 33 27  1  0
  1 42  1  0
  1 43  1  0
  1 44  1  0
  6 45  1  0
  6 46  1  0
  6 47  1  0
  9 48  1  0
 10 49  1  0
 15 50  1  0
 17 51  1  1
 18 52  1  0
 20 53  1  0
 20 54  1  0
 20 55  1  0
 21 56  1  0
 21 57  1  0
 21 58  1  0
 25 59  1  0
 25 60  1  0
 25 61  1  0
 26 62  1  0
 31 63  1  0
 32 64  1  0
 34 65  1  0
 37 66  1  0
 37 67  1  0
 37 68  1  0
 38 69  1  0
 41 70  1  0
 41 71  1  0
 41 72  1  0
M  END
>  <Name>  (147) 
Acrimarine N

>  <PubChem ID>  (147) 
131752938

>  <CDB ID>  (147) 
CDB0147

>  <Smiles>  (147) 
COC1=C(OC)C2=C(C=C1)C(=O)C1=C(O)C([C@@H](C=C(C)C)C3=C(OC)C=C4OC(=O)C=CC4=C3)=C(OC)C=C1N2C

>  <Chemical class>  (147) 
7-Oxygenated Coumarins

>  <Natural source>  (147) 
Citrus paradisi x C. tangerina

>  <Molecular Formula>  (147) 
C32H31NO8

>  <InChI-Key>  (147) 
DRQKNTLMXYUGTO-FQEVSTJZSA-N

>  <Total Molweight>  (147) 
557.597

>  <cLogP>  (147) 
5.8832

>  <cLogS>  (147) 
-7.304

>  <H-Acceptors>  (147) 
9

>  <H-Donors>  (147) 
1

>  <Rotatable Bonds>  (147) 
7

>  <Polar Surface Area>  (147) 
103.76

$$$$
CDB0148
     RDKit          3D

 29 31  0  0  0  0  0  0  0  0999 V2000
    4.2335   -0.6314   -0.7391 C   0  0  0  0  0  0  0  0  0  0  0  0
    3.4409    0.3170    0.1256 C   0  0  0  0  0  0  0  0  0  0  0  0
    4.0403    0.9543    1.1472 C   0  0  0  0  0  0  0  0  0  0  0  0
    1.9880    0.4935   -0.2851 C   0  0  0  0  0  0  0  0  0  0  0  0
    1.0755    1.3389    0.6290 C   0  0  0  0  0  0  0  0  0  0  0  0
   -0.2173    0.6628    0.3601 C   0  0  0  0  0  0  0  0  0  0  0  0
    0.0351   -0.5770   -0.2108 C   0  0  0  0  0  0  0  0  0  0  0  0
    1.3673   -0.8190   -0.4230 O   0  0  0  0  0  0  0  0  0  0  0  0
   -0.9745   -1.4668   -0.5036 C   0  0  0  0  0  0  0  0  0  0  0  0
   -2.2754   -1.0589   -0.2134 C   0  0  0  0  0  0  0  0  0  0  0  0
   -2.5584    0.1911    0.3614 C   0  0  0  0  0  0  0  0  0  0  0  0
   -1.5089    1.0667    0.6612 C   0  0  0  0  0  0  0  0  0  0  0  0
   -3.9436    0.5360    0.6393 C   0  0  0  0  0  0  0  0  0  0  0  0
   -4.9130   -0.3345    0.3418 C   0  0  0  0  0  0  0  0  0  0  0  0
   -4.6414   -1.6497   -0.2642 C   0  0  0  0  0  0  0  0  0  0  0  0
   -5.5601   -2.4183   -0.5238 O   0  0  0  0  0  0  0  0  0  0  0  0
   -3.3141   -1.9630   -0.5195 O   0  0  0  0  0  0  0  0  0  0  0  0
    3.8508   -1.6525   -0.6438 H   0  0  0  0  0  0  0  0  0  0  0  0
    5.2942   -0.6506   -0.4664 H   0  0  0  0  0  0  0  0  0  0  0  0
    4.1701   -0.3300   -1.7898 H   0  0  0  0  0  0  0  0  0  0  0  0
    3.5246    1.6619    1.7867 H   0  0  0  0  0  0  0  0  0  0  0  0
    5.0888    0.7842    1.3782 H   0  0  0  0  0  0  0  0  0  0  0  0
    1.9860    0.9399   -1.2918 H   0  0  0  0  0  0  0  0  0  0  0  0
    1.3123    1.2308    1.6922 H   0  0  0  0  0  0  0  0  0  0  0  0
    1.0824    2.3947    0.3449 H   0  0  0  0  0  0  0  0  0  0  0  0
   -0.7653   -2.4351   -0.9412 H   0  0  0  0  0  0  0  0  0  0  0  0
   -1.6908    2.0312    1.1246 H   0  0  0  0  0  0  0  0  0  0  0  0
   -4.1711    1.4976    1.0856 H   0  0  0  0  0  0  0  0  0  0  0  0
   -5.9560   -0.1138    0.5338 H   0  0  0  0  0  0  0  0  0  0  0  0
  1  2  1  0
  2  3  2  0
  2  4  1  0
  4  5  1  0
  5  6  1  0
  6  7  2  0
  7  8  1  0
  7  9  1  0
  9 10  2  0
 10 11  1  0
 11 12  2  0
 11 13  1  0
 13 14  2  0
 14 15  1  0
 15 16  2  0
 15 17  1  0
  8  4  1  0
 12  6  1  0
 17 10  1  0
  1 18  1  0
  1 19  1  0
  1 20  1  0
  3 21  1  0
  3 22  1  0
  4 23  1  0
  5 24  1  0
  5 25  1  0
  9 26  1  0
 12 27  1  0
 13 28  1  0
 14 29  1  0
M  END
>  <Name>  (148) 
Ammirin

>  <PubChem ID>  (148) 
759292

>  <CDB ID>  (148) 
CDB0148

>  <Smiles>  (148) 
CC(=C)C1CC2=C(O1)C=C3C(=C2)C=CC(=O)O3

>  <Chemical class>  (148) 
7-Oxygenated Coumarins

>  <Natural source>  (148) 
Ammi majus

>  <Molecular Formula>  (148) 
C14H12O3

>  <InChI-Key>  (148) 
VMWUHWZFDITAOL-LLVKDONJSA-N

>  <Total Molweight>  (148) 
228.246

>  <cLogP>  (148) 
2.9232

>  <cLogS>  (148) 
-3.448

>  <H-Acceptors>  (148) 
3

>  <H-Donors>  (148) 
0

>  <Rotatable Bonds>  (148) 
1

>  <Polar Surface Area>  (148) 
35.53

$$$$
CDB0149
     RDKit          3D

 29 31  0  0  0  0  0  0  0  0999 V2000
    4.2335   -0.6314   -0.7391 C   0  0  0  0  0  0  0  0  0  0  0  0
    3.4409    0.3170    0.1256 C   0  0  0  0  0  0  0  0  0  0  0  0
    4.0403    0.9543    1.1472 C   0  0  0  0  0  0  0  0  0  0  0  0
    1.9880    0.4935   -0.2851 C   0  0  0  0  0  0  0  0  0  0  0  0
    1.0755    1.3389    0.6290 C   0  0  0  0  0  0  0  0  0  0  0  0
   -0.2173    0.6628    0.3601 C   0  0  0  0  0  0  0  0  0  0  0  0
    0.0351   -0.5770   -0.2108 C   0  0  0  0  0  0  0  0  0  0  0  0
    1.3673   -0.8190   -0.4230 O   0  0  0  0  0  0  0  0  0  0  0  0
   -0.9745   -1.4668   -0.5036 C   0  0  0  0  0  0  0  0  0  0  0  0
   -2.2754   -1.0589   -0.2134 C   0  0  0  0  0  0  0  0  0  0  0  0
   -2.5584    0.1911    0.3614 C   0  0  0  0  0  0  0  0  0  0  0  0
   -1.5089    1.0667    0.6612 C   0  0  0  0  0  0  0  0  0  0  0  0
   -3.9436    0.5360    0.6393 C   0  0  0  0  0  0  0  0  0  0  0  0
   -4.9130   -0.3345    0.3418 C   0  0  0  0  0  0  0  0  0  0  0  0
   -4.6414   -1.6497   -0.2642 C   0  0  0  0  0  0  0  0  0  0  0  0
   -5.5601   -2.4183   -0.5238 O   0  0  0  0  0  0  0  0  0  0  0  0
   -3.3141   -1.9630   -0.5195 O   0  0  0  0  0  0  0  0  0  0  0  0
    3.8508   -1.6525   -0.6438 H   0  0  0  0  0  0  0  0  0  0  0  0
    5.2942   -0.6506   -0.4664 H   0  0  0  0  0  0  0  0  0  0  0  0
    4.1701   -0.3300   -1.7898 H   0  0  0  0  0  0  0  0  0  0  0  0
    3.5246    1.6619    1.7867 H   0  0  0  0  0  0  0  0  0  0  0  0
    5.0888    0.7842    1.3782 H   0  0  0  0  0  0  0  0  0  0  0  0
    1.9860    0.9399   -1.2918 H   0  0  0  0  0  0  0  0  0  0  0  0
    1.3123    1.2308    1.6922 H   0  0  0  0  0  0  0  0  0  0  0  0
    1.0824    2.3947    0.3449 H   0  0  0  0  0  0  0  0  0  0  0  0
   -0.7653   -2.4351   -0.9412 H   0  0  0  0  0  0  0  0  0  0  0  0
   -1.6908    2.0312    1.1246 H   0  0  0  0  0  0  0  0  0  0  0  0
   -4.1711    1.4976    1.0856 H   0  0  0  0  0  0  0  0  0  0  0  0
   -5.9560   -0.1138    0.5338 H   0  0  0  0  0  0  0  0  0  0  0  0
  1  2  1  0
  2  3  2  0
  2  4  1  0
  4  5  1  0
  5  6  1  0
  6  7  2  0
  7  8  1  0
  7  9  1  0
  9 10  2  0
 10 11  1  0
 11 12  2  0
 11 13  1  0
 13 14  2  0
 14 15  1  0
 15 16  2  0
 15 17  1  0
  8  4  1  0
 12  6  1  0
 17 10  1  0
  1 18  1  0
  1 19  1  0
  1 20  1  0
  3 21  1  0
  3 22  1  0
  4 23  1  0
  5 24  1  0
  5 25  1  0
  9 26  1  0
 12 27  1  0
 13 28  1  0
 14 29  1  0
M  END
>  <Name>  (149) 
Isoangenomalin

>  <PubChem ID>  (149) 
611672

>  <CDB ID>  (149) 
CDB0149

>  <Smiles>  (149) 
CC(=C)C1CC2=C(O1)C=C3C(=C2)C=CC(=O)O3

>  <Chemical class>  (149) 
7-Oxygenated Coumarins

>  <Natural source>  (149) 
Scaevola lobelia

>  <Molecular Formula>  (149) 
C14H12O3

>  <InChI-Key>  (149) 
VMWUHWZFDITAOL-LLVKDONJSA-N

>  <Total Molweight>  (149) 
228.246

>  <cLogP>  (149) 
2.9232

>  <cLogS>  (149) 
-3.448

>  <H-Acceptors>  (149) 
3

>  <H-Donors>  (149) 
0

>  <Rotatable Bonds>  (149) 
1

>  <Polar Surface Area>  (149) 
35.53

$$$$
CDB0150
     RDKit          3D

 32 34  0  0  0  0  0  0  0  0999 V2000
    3.3226   -0.6615    0.7248 C   0  0  0  0  0  0  0  0  0  0  0  0
    3.0895    0.3139   -0.4346 C   0  0  0  0  0  0  0  0  0  0  0  0
    3.7881    1.6414   -0.1060 C   0  0  0  0  0  0  0  0  0  0  0  0
    1.5875    0.5537   -0.7251 C   0  0  0  0  0  0  0  0  0  0  0  0
    0.8253   -0.6860   -1.2335 C   0  0  0  0  0  0  0  0  0  0  0  0
   -0.4905   -0.4327   -0.6004 C   0  0  0  0  0  0  0  0  0  0  0  0
   -0.3572    0.5607    0.3592 C   0  0  0  0  0  0  0  0  0  0  0  0
    0.9083    1.0754    0.4495 O   0  0  0  0  0  0  0  0  0  0  0  0
   -1.4129    0.9601    1.1491 C   0  0  0  0  0  0  0  0  0  0  0  0
   -2.6359    0.3272    0.9340 C   0  0  0  0  0  0  0  0  0  0  0  0
   -2.7985   -0.6791   -0.0316 C   0  0  0  0  0  0  0  0  0  0  0  0
   -1.7040   -1.0709   -0.8100 C   0  0  0  0  0  0  0  0  0  0  0  0
   -4.1070   -1.2937   -0.1885 C   0  0  0  0  0  0  0  0  0  0  0  0
   -5.1223   -0.8901    0.5809 C   0  0  0  0  0  0  0  0  0  0  0  0
   -4.9771    0.1658    1.5983 C   0  0  0  0  0  0  0  0  0  0  0  0
   -5.9346    0.5091    2.2821 O   0  0  0  0  0  0  0  0  0  0  0  0
   -3.7208    0.7387    1.7360 O   0  0  0  0  0  0  0  0  0  0  0  0
    3.7144   -0.2469   -1.5977 O   0  0  0  0  0  0  0  0  0  0  0  0
    4.3960   -0.7887    0.9100 H   0  0  0  0  0  0  0  0  0  0  0  0
    2.9423   -1.6619    0.4969 H   0  0  0  0  0  0  0  0  0  0  0  0
    2.8568   -0.3137    1.6523 H   0  0  0  0  0  0  0  0  0  0  0  0
    3.3960    2.0934    0.8107 H   0  0  0  0  0  0  0  0  0  0  0  0
    4.8676    1.4937    0.0144 H   0  0  0  0  0  0  0  0  0  0  0  0
    3.6663    2.3599   -0.9247 H   0  0  0  0  0  0  0  0  0  0  0  0
    1.5075    1.3307   -1.5013 H   0  0  0  0  0  0  0  0  0  0  0  0
    0.7777   -0.7044   -2.3262 H   0  0  0  0  0  0  0  0  0  0  0  0
    1.2360   -1.6308   -0.8697 H   0  0  0  0  0  0  0  0  0  0  0  0
   -1.2967    1.7320    1.9000 H   0  0  0  0  0  0  0  0  0  0  0  0
   -1.7906   -1.8570   -1.5537 H   0  0  0  0  0  0  0  0  0  0  0  0
   -4.2406   -2.0738   -0.9298 H   0  0  0  0  0  0  0  0  0  0  0  0
   -6.1112   -1.3237    0.4938 H   0  0  0  0  0  0  0  0  0  0  0  0
    3.8180    0.4596   -2.2589 H   0  0  0  0  0  0  0  0  0  0  0  0
  1  2  1  0
  2  3  1  0
  2  4  1  0
  4  5  1  0
  5  6  1  0
  6  7  2  0
  7  8  1  0
  7  9  1  0
  9 10  2  0
 10 11  1  0
 11 12  2  0
 11 13  1  0
 13 14  2  0
 14 15  1  0
 15 16  2  0
 15 17  1  0
  2 18  1  0
  8  4  1  0
 12  6  1  0
 17 10  1  0
  1 19  1  0
  1 20  1  0
  1 21  1  0
  3 22  1  0
  3 23  1  0
  3 24  1  0
  4 25  1  0
  5 26  1  0
  5 27  1  0
  9 28  1  0
 12 29  1  0
 13 30  1  0
 14 31  1  0
 18 32  1  0
M  END
>  <Name>  (150) 
Nodakenetin

>  <PubChem ID>  (150) 
26305

>  <CDB ID>  (150) 
CDB0150

>  <Smiles>  (150) 
CC(C)(C1CC2=C(O1)C=C3C(=C2)C=CC(=O)O3)O

>  <Chemical class>  (150) 
7-Oxygenated Coumarins

>  <Natural source>  (150) 
Angelica decursiva

>  <Molecular Formula>  (150) 
C14H14O4

>  <InChI-Key>  (150) 
FWYSBEAFFPBAQU-GFCCVEGCSA-N

>  <Total Molweight>  (150) 
246.261

>  <cLogP>  (150) 
1.8611

>  <cLogS>  (150) 
-3.095

>  <H-Acceptors>  (150) 
4

>  <H-Donors>  (150) 
1

>  <Rotatable Bonds>  (150) 
1

>  <Polar Surface Area>  (150) 
55.76

$$$$
CDB0151
     RDKit          3D

 53 56  0  0  0  0  0  0  0  0999 V2000
   -0.9279    1.2085   -2.1055 C   0  0  0  0  0  0  0  0  0  0  0  0
   -0.3025    1.1284   -0.7039 C   0  0  0  0  0  0  0  0  0  0  0  0
    0.2041    2.5088   -0.2519 C   0  0  0  0  0  0  0  0  0  0  0  0
    0.8564    0.0834   -0.7045 C   0  0  0  0  0  0  0  0  0  0  0  0
    1.9305    0.2663   -1.7944 C   0  0  0  0  0  0  0  0  0  0  0  0
    3.1178   -0.2177   -1.0524 C   0  0  0  0  0  0  0  0  0  0  0  0
    2.8189   -0.2755    0.3010 C   0  0  0  0  0  0  0  0  0  0  0  0
    1.5282    0.0735    0.5940 O   0  0  0  0  0  0  0  0  0  0  0  0
    3.7584   -0.6327    1.2429 C   0  0  0  0  0  0  0  0  0  0  0  0
    5.0316   -0.9503    0.7736 C   0  0  0  0  0  0  0  0  0  0  0  0
    5.3600   -0.9028   -0.5907 C   0  0  0  0  0  0  0  0  0  0  0  0
    4.3866   -0.5232   -1.5215 C   0  0  0  0  0  0  0  0  0  0  0  0
    6.7140   -1.2437   -0.9969 C   0  0  0  0  0  0  0  0  0  0  0  0
    7.6118   -1.5957   -0.0716 C   0  0  0  0  0  0  0  0  0  0  0  0
    7.2904   -1.6554    1.3651 C   0  0  0  0  0  0  0  0  0  0  0  0
    8.1426   -1.9851    2.1818 O   0  0  0  0  0  0  0  0  0  0  0  0
    5.9945   -1.3240    1.7342 O   0  0  0  0  0  0  0  0  0  0  0  0
   -1.2445    0.6257    0.2712 O   0  0  0  0  0  0  0  0  0  0  0  0
   -2.5166    1.2602    0.3695 C   0  0  0  0  0  0  0  0  0  0  0  0
   -3.0078    1.1686    1.8268 C   0  0  0  0  0  0  0  0  0  0  0  0
   -3.2478   -0.2882    2.2500 C   0  0  0  0  0  0  0  0  0  0  0  0
   -3.3526   -1.2500    1.0604 C   0  0  0  0  0  0  0  0  0  0  0  0
   -4.0157   -0.5913   -0.1576 C   0  0  0  0  0  0  0  0  0  0  0  0
   -3.4327    0.6621   -0.5558 O   0  0  0  0  0  0  0  0  0  0  0  0
   -5.5316   -0.3889   -0.0081 C   0  0  0  0  0  0  0  0  0  0  0  0
   -6.0664    0.0856   -1.2479 O   0  0  0  0  0  0  0  0  0  0  0  0
   -4.0304   -2.4395    1.4870 O   0  0  0  0  0  0  0  0  0  0  0  0
   -4.4384   -0.3590    3.0612 O   0  0  0  0  0  0  0  0  0  0  0  0
   -4.2086    1.9398    2.0007 O   0  0  0  0  0  0  0  0  0  0  0  0
   -0.2018    1.5213   -2.8622 H   0  0  0  0  0  0  0  0  0  0  0  0
   -1.3415    0.2380   -2.4014 H   0  0  0  0  0  0  0  0  0  0  0  0
   -1.7508    1.9299   -2.1412 H   0  0  0  0  0  0  0  0  0  0  0  0
   -0.5805    3.2692   -0.3210 H   0  0  0  0  0  0  0  0  0  0  0  0
    0.5199    2.4890    0.7970 H   0  0  0  0  0  0  0  0  0  0  0  0
    1.0412    2.8606   -0.8615 H   0  0  0  0  0  0  0  0  0  0  0  0
    0.4134   -0.9198   -0.8060 H   0  0  0  0  0  0  0  0  0  0  0  0
    2.0800    1.3104   -2.0819 H   0  0  0  0  0  0  0  0  0  0  0  0
    1.7063   -0.3329   -2.6816 H   0  0  0  0  0  0  0  0  0  0  0  0
    3.5157   -0.6675    2.2979 H   0  0  0  0  0  0  0  0  0  0  0  0
    4.6124   -0.4598   -2.5814 H   0  0  0  0  0  0  0  0  0  0  0  0
    6.9774   -1.2076   -2.0481 H   0  0  0  0  0  0  0  0  0  0  0  0
    8.6297   -1.8566   -0.3348 H   0  0  0  0  0  0  0  0  0  0  0  0
   -2.4551    2.3186    0.1008 H   0  0  0  0  0  0  0  0  0  0  0  0
   -2.2567    1.6055    2.4953 H   0  0  0  0  0  0  0  0  0  0  0  0
   -2.4237   -0.6285    2.8887 H   0  0  0  0  0  0  0  0  0  0  0  0
   -2.3361   -1.5490    0.7767 H   0  0  0  0  0  0  0  0  0  0  0  0
   -3.8790   -1.2601   -1.0172 H   0  0  0  0  0  0  0  0  0  0  0  0
   -5.7800    0.3547    0.7516 H   0  0  0  0  0  0  0  0  0  0  0  0
   -6.0414   -1.3249    0.2365 H   0  0  0  0  0  0  0  0  0  0  0  0
   -5.5146    0.8561   -1.4857 H   0  0  0  0  0  0  0  0  0  0  0  0
   -3.9753   -3.0837    0.7569 H   0  0  0  0  0  0  0  0  0  0  0  0
   -4.6718   -1.3128    3.0668 H   0  0  0  0  0  0  0  0  0  0  0  0
   -4.7101    1.4621    2.6977 H   0  0  0  0  0  0  0  0  0  0  0  0
  1  2  1  0
  2  3  1  0
  2  4  1  0
  4  5  1  0
  5  6  1  0
  6  7  2  0
  7  8  1  0
  7  9  1  0
  9 10  2  0
 10 11  1  0
 11 12  2  0
 11 13  1  0
 13 14  2  0
 14 15  1  0
 15 16  2  0
 15 17  1  0
  2 18  1  0
 18 19  1  0
 19 20  1  0
 20 21  1  0
 21 22  1  0
 22 23  1  0
 23 24  1  0
 23 25  1  0
 25 26  1  0
 22 27  1  0
 21 28  1  0
 20 29  1  0
  8  4  1  0
 12  6  1  0
 17 10  1  0
 24 19  1  0
  1 30  1  0
  1 31  1  0
  1 32  1  0
  3 33  1  0
  3 34  1  0
  3 35  1  0
  4 36  1  0
  5 37  1  0
  5 38  1  0
  9 39  1  0
 12 40  1  0
 13 41  1  0
 14 42  1  0
 19 43  1  0
 20 44  1  0
 21 45  1  0
 22 46  1  0
 23 47  1  0
 25 48  1  0
 25 49  1  0
 26 50  1  0
 27 51  1  0
 28 52  1  0
 29 53  1  0
M  END
>  <Name>  (151) 
Nodakenin

>  <PubChem ID>  (151) 
73191

>  <CDB ID>  (151) 
CDB0151

>  <Smiles>  (151) 
CC(C)(C1CC2=C(O1)C=C3C(=C2)C=CC(=O)O3)OC4C(C(C(C(O4)CO)O)O)O

>  <Chemical class>  (151) 
7-Oxygenated Coumarins

>  <Natural source>  (151) 
Peucedanum decursivum

>  <Molecular Formula>  (151) 
C20H24O9

>  <InChI-Key>  (151) 
HXCGUCZXPFBNRD-UHFFFAOYSA-N

>  <Total Molweight>  (151) 
408.402

>  <cLogP>  (151) 
0.024

>  <cLogS>  (151) 
-2.795

>  <H-Acceptors>  (151) 
9

>  <H-Donors>  (151) 
4

>  <Rotatable Bonds>  (151) 
4

>  <Polar Surface Area>  (151) 
134.91

$$$$
CDB0152
     RDKit          3D

 74 78  0  0  0  0  0  0  0  0999 V2000
    2.5426    2.4598    3.0035 C   0  0  0  0  0  0  0  0  0  0  0  0
    2.3563    0.9637    2.7164 C   0  0  0  0  0  0  0  0  0  0  0  0
    3.6778    0.2403    3.0403 C   0  0  0  0  0  0  0  0  0  0  0  0
    1.9364    0.7137    1.2413 C   0  0  0  0  0  0  0  0  0  0  0  0
    2.8916    1.2330    0.1504 C   0  0  0  0  0  0  0  0  0  0  0  0
    2.6125    0.2187   -0.8964 C   0  0  0  0  0  0  0  0  0  0  0  0
    1.9793   -0.8729   -0.3185 C   0  0  0  0  0  0  0  0  0  0  0  0
    1.7337   -0.7163    1.0187 O   0  0  0  0  0  0  0  0  0  0  0  0
    1.6417   -1.9947   -1.0420 C   0  0  0  0  0  0  0  0  0  0  0  0
    1.9412   -1.9768   -2.4022 C   0  0  0  0  0  0  0  0  0  0  0  0
    2.5706   -0.8820   -3.0164 C   0  0  0  0  0  0  0  0  0  0  0  0
    2.9245    0.2321   -2.2468 C   0  0  0  0  0  0  0  0  0  0  0  0
    2.8254   -0.9347   -4.4469 C   0  0  0  0  0  0  0  0  0  0  0  0
    2.4550   -2.0131   -5.1439 C   0  0  0  0  0  0  0  0  0  0  0  0
    1.8010   -3.1769   -4.5202 C   0  0  0  0  0  0  0  0  0  0  0  0
    1.4986   -4.1583   -5.1897 O   0  0  0  0  0  0  0  0  0  0  0  0
    1.5694   -3.1109   -3.1531 O   0  0  0  0  0  0  0  0  0  0  0  0
    1.4119    0.3378    3.6137 O   0  0  0  0  0  0  0  0  0  0  0  0
    0.1999    1.0126    3.9600 C   0  0  0  0  0  0  0  0  0  0  0  0
   -0.5828    0.0463    4.8898 C   0  0  0  0  0  0  0  0  0  0  0  0
   -2.0752    0.3083    4.7577 C   0  0  0  0  0  0  0  0  0  0  0  0
   -2.5458    0.0722    3.3099 C   0  0  0  0  0  0  0  0  0  0  0  0
   -1.4363    0.4456    2.2991 C   0  0  0  0  0  0  0  0  0  0  0  0
   -0.5722    1.4574    2.8438 O   0  0  0  0  0  0  0  0  0  0  0  0
   -1.9744    0.9416    0.9510 C   0  0  0  0  0  0  0  0  0  0  0  0
   -2.3448   -0.1714    0.1339 O   0  0  0  0  0  0  0  0  0  0  0  0
   -2.9898    0.2426   -1.0764 C   0  0  0  0  0  0  0  0  0  0  0  0
   -3.2764   -1.0291   -1.9173 C   0  0  0  0  0  0  0  0  0  0  0  0
   -3.2846   -0.6309   -3.3931 C   0  0  0  0  0  0  0  0  0  0  0  0
   -1.8676   -0.1700   -3.7895 C   0  0  0  0  0  0  0  0  0  0  0  0
   -1.2312    0.6674   -2.6598 C   0  0  0  0  0  0  0  0  0  0  0  0
   -2.2369    1.2302   -1.8001 O   0  0  0  0  0  0  0  0  0  0  0  0
   -0.4138    1.8279   -3.2365 C   0  0  0  0  0  0  0  0  0  0  0  0
    0.1645    2.5906   -2.1733 O   0  0  0  0  0  0  0  0  0  0  0  0
   -1.0417   -1.3204   -4.0487 O   0  0  0  0  0  0  0  0  0  0  0  0
   -3.7061   -1.7187   -4.2194 O   0  0  0  0  0  0  0  0  0  0  0  0
   -2.2318   -2.0158   -1.7099 O   0  0  0  0  0  0  0  0  0  0  0  0
   -3.7519    0.8307    3.1266 O   0  0  0  0  0  0  0  0  0  0  0  0
   -2.8200   -0.5575    5.6282 O   0  0  0  0  0  0  0  0  0  0  0  0
   -0.3541   -1.3374    4.5351 O   0  0  0  0  0  0  0  0  0  0  0  0
    2.7319    2.6334    4.0688 H   0  0  0  0  0  0  0  0  0  0  0  0
    3.3799    2.8793    2.4360 H   0  0  0  0  0  0  0  0  0  0  0  0
    1.6469    3.0324    2.7408 H   0  0  0  0  0  0  0  0  0  0  0  0
    4.5252    0.6357    2.4735 H   0  0  0  0  0  0  0  0  0  0  0  0
    3.9158    0.3391    4.1066 H   0  0  0  0  0  0  0  0  0  0  0  0
    3.6011   -0.8356    2.8469 H   0  0  0  0  0  0  0  0  0  0  0  0
    0.9628    1.1788    1.0639 H   0  0  0  0  0  0  0  0  0  0  0  0
    2.6356    2.2510   -0.1562 H   0  0  0  0  0  0  0  0  0  0  0  0
    3.9455    1.1842    0.4337 H   0  0  0  0  0  0  0  0  0  0  0  0
    1.1531   -2.8425   -0.5781 H   0  0  0  0  0  0  0  0  0  0  0  0
    3.4142    1.0941   -2.6891 H   0  0  0  0  0  0  0  0  0  0  0  0
    3.3042   -0.0911   -4.9311 H   0  0  0  0  0  0  0  0  0  0  0  0
    2.6196   -2.0864   -6.2118 H   0  0  0  0  0  0  0  0  0  0  0  0
    0.4430    1.9088    4.5407 H   0  0  0  0  0  0  0  0  0  0  0  0
   -0.2368    0.1427    5.9242 H   0  0  0  0  0  0  0  0  0  0  0  0
   -2.3058    1.3334    5.0715 H   0  0  0  0  0  0  0  0  0  0  0  0
   -2.8328   -0.9738    3.1475 H   0  0  0  0  0  0  0  0  0  0  0  0
   -0.8240   -0.4460    2.1119 H   0  0  0  0  0  0  0  0  0  0  0  0
   -2.8155    1.6327    1.0745 H   0  0  0  0  0  0  0  0  0  0  0  0
   -1.1852    1.5019    0.4378 H   0  0  0  0  0  0  0  0  0  0  0  0
   -3.9452    0.7160   -0.8206 H   0  0  0  0  0  0  0  0  0  0  0  0
   -4.2099   -1.5076   -1.6047 H   0  0  0  0  0  0  0  0  0  0  0  0
   -4.0026    0.1836   -3.5450 H   0  0  0  0  0  0  0  0  0  0  0  0
   -1.9238    0.3836   -4.7329 H   0  0  0  0  0  0  0  0  0  0  0  0
   -0.5602    0.0654   -2.0360 H   0  0  0  0  0  0  0  0  0  0  0  0
    0.3928    1.4685   -3.8815 H   0  0  0  0  0  0  0  0  0  0  0  0
   -1.0492    2.5097   -3.8115 H   0  0  0  0  0  0  0  0  0  0  0  0
   -0.5732    2.7706   -1.5594 H   0  0  0  0  0  0  0  0  0  0  0  0
   -1.0926   -1.8795   -3.2395 H   0  0  0  0  0  0  0  0  0  0  0  0
   -2.9153   -2.2786   -4.3550 H   0  0  0  0  0  0  0  0  0  0  0  0
   -2.0358   -1.9661   -0.7492 H   0  0  0  0  0  0  0  0  0  0  0  0
   -4.3433    0.5661    3.8586 H   0  0  0  0  0  0  0  0  0  0  0  0
   -2.3788   -1.4302    5.5658 H   0  0  0  0  0  0  0  0  0  0  0  0
    0.5618   -1.3569    4.1794 H   0  0  0  0  0  0  0  0  0  0  0  0
  1  2  1  0
  2  3  1  0
  2  4  1  0
  4  5  1  0
  5  6  1  0
  6  7  2  0
  7  8  1  0
  7  9  1  0
  9 10  2  0
 10 11  1  0
 11 12  2  0
 11 13  1  0
 13 14  2  0
 14 15  1  0
 15 16  2  0
 15 17  1  0
  2 18  1  0
 18 19  1  0
 19 20  1  0
 20 21  1  0
 21 22  1  0
 22 23  1  0
 23 24  1  0
 23 25  1  0
 25 26  1  0
 26 27  1  0
 27 28  1  0
 28 29  1  0
 29 30  1  0
 30 31  1  0
 31 32  1  0
 31 33  1  0
 33 34  1  0
 30 35  1  0
 29 36  1  0
 28 37  1  0
 22 38  1  0
 21 39  1  0
 20 40  1  0
  8  4  1  0
 12  6  1  0
 17 10  1  0
 24 19  1  0
 32 27  1  0
  1 41  1  0
  1 42  1  0
  1 43  1  0
  3 44  1  0
  3 45  1  0
  3 46  1  0
  4 47  1  0
  5 48  1  0
  5 49  1  0
  9 50  1  0
 12 51  1  0
 13 52  1  0
 14 53  1  0
 19 54  1  0
 20 55  1  0
 21 56  1  0
 22 57  1  0
 23 58  1  0
 25 59  1  0
 25 60  1  0
 27 61  1  0
 28 62  1  0
 29 63  1  0
 30 64  1  0
 31 65  1  0
 33 66  1  0
 33 67  1  0
 34 68  1  0
 35 69  1  0
 36 70  1  0
 37 71  1  0
 38 72  1  0
 39 73  1  0
 40 74  1  0
M  END
>  <Name>  (152) 
Decuroside I

>  <PubChem ID>  (152) 
122169321

>  <CDB ID>  (152) 
CDB0152

>  <Smiles>  (152) 
CC(C)(C1CC2=C(O1)C=C3C(=C2)C=CC(=O)O3)OC4C(C(C(C(O4)COC5C(C(C(C(O5)CO)O)O)O)O)O)O

>  <Chemical class>  (152) 
7-Oxygenated Coumarins

>  <Natural source>  (152) 
Peucedanum decursivum

>  <Molecular Formula>  (152) 
C26H34O14

>  <InChI-Key>  (152) 
AUYDWCKBYROHJQ-UHFFFAOYSA-N

>  <Total Molweight>  (152) 
570.542

>  <cLogP>  (152) 
-1.8131

>  <cLogS>  (152) 
-2.495

>  <H-Acceptors>  (152) 
14

>  <H-Donors>  (152) 
7

>  <Rotatable Bonds>  (152) 
7

>  <Polar Surface Area>  (152) 
214.06

$$$$
CDB0153
     RDKit          3D

 74 78  0  0  0  0  0  0  0  0999 V2000
    2.0801    0.0012   -2.4504 C   0  0  0  0  0  0  0  0  0  0  0  0
    2.3792   -0.7698   -1.1531 C   0  0  0  0  0  0  0  0  0  0  0  0
    2.1045   -2.2703   -1.3394 C   0  0  0  0  0  0  0  0  0  0  0  0
    3.8593   -0.5539   -0.7074 C   0  0  0  0  0  0  0  0  0  0  0  0
    4.9325   -1.2374   -1.5770 C   0  0  0  0  0  0  0  0  0  0  0  0
    6.0209   -0.2400   -1.4538 C   0  0  0  0  0  0  0  0  0  0  0  0
    5.5017    0.9423   -0.9473 C   0  0  0  0  0  0  0  0  0  0  0  0
    4.1664    0.8748   -0.6545 O   0  0  0  0  0  0  0  0  0  0  0  0
    6.2750    2.0708   -0.7854 C   0  0  0  0  0  0  0  0  0  0  0  0
    7.6183    1.9703   -1.1425 C   0  0  0  0  0  0  0  0  0  0  0  0
    8.1702    0.7847   -1.6539 C   0  0  0  0  0  0  0  0  0  0  0  0
    7.3550   -0.3405   -1.8190 C   0  0  0  0  0  0  0  0  0  0  0  0
    9.5808    0.7645   -2.0066 C   0  0  0  0  0  0  0  0  0  0  0  0
   10.3191    1.8656   -1.8376 C   0  0  0  0  0  0  0  0  0  0  0  0
    9.7629    3.1209   -1.3029 C   0  0  0  0  0  0  0  0  0  0  0  0
   10.4746    4.1091   -1.1646 O   0  0  0  0  0  0  0  0  0  0  0  0
    8.4153    3.1216   -0.9725 O   0  0  0  0  0  0  0  0  0  0  0  0
    1.5904   -0.2146   -0.0766 O   0  0  0  0  0  0  0  0  0  0  0  0
    0.1755   -0.4162   -0.0964 C   0  0  0  0  0  0  0  0  0  0  0  0
   -0.4420    0.7615    0.6832 C   0  0  0  0  0  0  0  0  0  0  0  0
   -1.9667    0.6293    0.7784 C   0  0  0  0  0  0  0  0  0  0  0  0
   -2.4607   -0.7988    0.4663 C   0  0  0  0  0  0  0  0  0  0  0  0
   -1.4616   -1.8548    0.9718 C   0  0  0  0  0  0  0  0  0  0  0  0
   -0.1076   -1.6673    0.5283 O   0  0  0  0  0  0  0  0  0  0  0  0
   -1.4501   -2.0213    2.5008 C   0  0  0  0  0  0  0  0  0  0  0  0
   -0.5466   -3.0730    2.8538 O   0  0  0  0  0  0  0  0  0  0  0  0
   -3.7490   -1.0867    1.0379 O   0  0  0  0  0  0  0  0  0  0  0  0
   -4.8649   -0.5094    0.3478 C   0  0  0  0  0  0  0  0  0  0  0  0
   -6.1106   -1.3291    0.7610 C   0  0  0  0  0  0  0  0  0  0  0  0
   -7.3845   -0.5644    0.3921 C   0  0  0  0  0  0  0  0  0  0  0  0
   -7.3739    0.8353    1.0419 C   0  0  0  0  0  0  0  0  0  0  0  0
   -5.9807    1.1995    1.6071 C   0  0  0  0  0  0  0  0  0  0  0  0
   -4.9629    0.8874    0.6524 O   0  0  0  0  0  0  0  0  0  0  0  0
   -5.9070    2.6931    1.9580 C   0  0  0  0  0  0  0  0  0  0  0  0
   -6.7855    3.0272    3.0263 O   0  0  0  0  0  0  0  0  0  0  0  0
   -8.3705    0.9347    2.0665 O   0  0  0  0  0  0  0  0  0  0  0  0
   -7.4567   -0.4166   -1.0346 O   0  0  0  0  0  0  0  0  0  0  0  0
   -6.0990   -2.6387    0.1792 O   0  0  0  0  0  0  0  0  0  0  0  0
   -2.5404    1.5307   -0.1858 O   0  0  0  0  0  0  0  0  0  0  0  0
    0.1175    0.8077    2.0100 O   0  0  0  0  0  0  0  0  0  0  0  0
    1.0737   -0.2137   -2.8241 H   0  0  0  0  0  0  0  0  0  0  0  0
    2.7778   -0.2561   -3.2525 H   0  0  0  0  0  0  0  0  0  0  0  0
    2.1216    1.0834   -2.2850 H   0  0  0  0  0  0  0  0  0  0  0  0
    2.7461   -2.7140   -2.1069 H   0  0  0  0  0  0  0  0  0  0  0  0
    1.0704   -2.4560   -1.6482 H   0  0  0  0  0  0  0  0  0  0  0  0
    2.2606   -2.8131   -0.4005 H   0  0  0  0  0  0  0  0  0  0  0  0
    3.9618   -0.9093    0.3299 H   0  0  0  0  0  0  0  0  0  0  0  0
    5.2041   -2.2194   -1.1794 H   0  0  0  0  0  0  0  0  0  0  0  0
    4.6410   -1.3310   -2.6266 H   0  0  0  0  0  0  0  0  0  0  0  0
    5.8568    2.9905   -0.3950 H   0  0  0  0  0  0  0  0  0  0  0  0
    7.7463   -1.2672   -2.2269 H   0  0  0  0  0  0  0  0  0  0  0  0
   10.0155   -0.1466   -2.4023 H   0  0  0  0  0  0  0  0  0  0  0  0
   11.3727    1.8897   -2.0880 H   0  0  0  0  0  0  0  0  0  0  0  0
   -0.2125   -0.4251   -1.1196 H   0  0  0  0  0  0  0  0  0  0  0  0
   -0.1564    1.7061    0.2051 H   0  0  0  0  0  0  0  0  0  0  0  0
   -2.3195    0.9528    1.7651 H   0  0  0  0  0  0  0  0  0  0  0  0
   -2.5363   -0.9171   -0.6237 H   0  0  0  0  0  0  0  0  0  0  0  0
   -1.7652   -2.8276    0.5632 H   0  0  0  0  0  0  0  0  0  0  0  0
   -2.4383   -2.2892    2.8853 H   0  0  0  0  0  0  0  0  0  0  0  0
   -1.1125   -1.1193    3.0149 H   0  0  0  0  0  0  0  0  0  0  0  0
    0.2766   -2.8770    2.3648 H   0  0  0  0  0  0  0  0  0  0  0  0
   -4.7054   -0.6135   -0.7321 H   0  0  0  0  0  0  0  0  0  0  0  0
   -6.1010   -1.4951    1.8460 H   0  0  0  0  0  0  0  0  0  0  0  0
   -8.2628   -1.1472    0.6932 H   0  0  0  0  0  0  0  0  0  0  0  0
   -7.6495    1.5740    0.2790 H   0  0  0  0  0  0  0  0  0  0  0  0
   -5.7953    0.6468    2.5382 H   0  0  0  0  0  0  0  0  0  0  0  0
   -4.8878    2.9557    2.2615 H   0  0  0  0  0  0  0  0  0  0  0  0
   -6.1462    3.3174    1.0900 H   0  0  0  0  0  0  0  0  0  0  0  0
   -7.6820    2.7250    2.7756 H   0  0  0  0  0  0  0  0  0  0  0  0
   -8.2065    0.2421    2.7334 H   0  0  0  0  0  0  0  0  0  0  0  0
   -8.3900   -0.2486   -1.2586 H   0  0  0  0  0  0  0  0  0  0  0  0
   -5.2294   -3.0267    0.3884 H   0  0  0  0  0  0  0  0  0  0  0  0
   -3.4872    1.6161    0.0544 H   0  0  0  0  0  0  0  0  0  0  0  0
    1.0805    0.6855    1.8797 H   0  0  0  0  0  0  0  0  0  0  0  0
  1  2  1  0
  2  3  1  0
  2  4  1  0
  4  5  1  0
  5  6  1  0
  6  7  2  0
  7  8  1  0
  7  9  1  0
  9 10  2  0
 10 11  1  0
 11 12  2  0
 11 13  1  0
 13 14  2  0
 14 15  1  0
 15 16  2  0
 15 17  1  0
  2 18  1  0
 18 19  1  0
 19 20  1  0
 20 21  1  0
 21 22  1  0
 22 23  1  0
 23 24  1  0
 23 25  1  0
 25 26  1  0
 22 27  1  0
 27 28  1  0
 28 29  1  0
 29 30  1  0
 30 31  1  0
 31 32  1  0
 32 33  1  0
 32 34  1  0
 34 35  1  0
 31 36  1  0
 30 37  1  0
 29 38  1  0
 21 39  1  0
 20 40  1  0
  8  4  1  0
 12  6  1  0
 17 10  1  0
 24 19  1  0
 33 28  1  0
  1 41  1  0
  1 42  1  0
  1 43  1  0
  3 44  1  0
  3 45  1  0
  3 46  1  0
  4 47  1  0
  5 48  1  0
  5 49  1  0
  9 50  1  0
 12 51  1  0
 13 52  1  0
 14 53  1  0
 19 54  1  0
 20 55  1  0
 21 56  1  0
 22 57  1  0
 23 58  1  0
 25 59  1  0
 25 60  1  0
 26 61  1  0
 28 62  1  0
 29 63  1  0
 30 64  1  0
 31 65  1  0
 32 66  1  0
 34 67  1  0
 34 68  1  0
 35 69  1  0
 36 70  1  0
 37 71  1  0
 38 72  1  0
 39 73  1  0
 40 74  1  0
M  END
>  <Name>  (153) 
Decuroside Iii

>  <PubChem ID>  (153) 
442125

>  <CDB ID>  (153) 
CDB0153

>  <Smiles>  (153) 
CC(C)(C1CC2=C(O1)C=C3C(=C2)C=CC(=O)O3)OC4C(C(C(C(O4)CO)OC5C(C(C(C(O5)CO)O)O)O)O)O

>  <Chemical class>  (153) 
7-Oxygenated Coumarins

>  <Natural source>  (153) 
Peucedanum decursivum

>  <Molecular Formula>  (153) 
C26H34O14

>  <InChI-Key>  (153) 
FBXYOMVTZDVTHK-UHFFFAOYSA-N

>  <Total Molweight>  (153) 
570.542

>  <cLogP>  (153) 
-1.8131

>  <cLogS>  (153) 
-2.495

>  <H-Acceptors>  (153) 
14

>  <H-Donors>  (153) 
7

>  <Rotatable Bonds>  (153) 
7

>  <Polar Surface Area>  (153) 
214.06

$$$$
CDB0154
     RDKit          3D

 47 50  0  0  0  0  0  0  0  0999 V2000
   -0.5321    3.2230   -1.1025 C   0  0  0  0  0  0  0  0  0  0  0  0
   -0.0554    2.5804    0.2110 C   0  0  0  0  0  0  0  0  0  0  0  0
    0.0285    3.6239    1.3352 C   0  0  0  0  0  0  0  0  0  0  0  0
    1.3499    1.9487   -0.0112 C   0  0  0  0  0  0  0  0  0  0  0  0
    1.9040    1.1805    1.2069 C   0  0  0  0  0  0  0  0  0  0  0  0
    2.6239    0.0933    0.5043 C   0  0  0  0  0  0  0  0  0  0  0  0
    2.2146    0.0544   -0.8202 C   0  0  0  0  0  0  0  0  0  0  0  0
    1.3118    1.0301   -1.1459 O   0  0  0  0  0  0  0  0  0  0  0  0
    2.6731   -0.9018   -1.6994 C   0  0  0  0  0  0  0  0  0  0  0  0
    3.5839   -1.8313   -1.2005 C   0  0  0  0  0  0  0  0  0  0  0  0
    4.0153   -1.8140    0.1355 C   0  0  0  0  0  0  0  0  0  0  0  0
    3.5215   -0.8369    1.0066 C   0  0  0  0  0  0  0  0  0  0  0  0
    4.9611   -2.8258    0.5787 C   0  0  0  0  0  0  0  0  0  0  0  0
    5.4017   -3.7423   -0.2883 C   0  0  0  0  0  0  0  0  0  0  0  0
    4.9678   -3.7775   -1.6959 C   0  0  0  0  0  0  0  0  0  0  0  0
    5.3995   -4.6323   -2.4609 O   0  0  0  0  0  0  0  0  0  0  0  0
    4.0616   -2.8073   -2.0998 O   0  0  0  0  0  0  0  0  0  0  0  0
   -0.9386    1.4907    0.5950 O   0  0  0  0  0  0  0  0  0  0  0  0
   -2.2439    1.7066    0.8381 C   0  0  0  0  0  0  0  0  0  0  0  0
   -2.8759    2.7420    0.7568 O   0  0  0  0  0  0  0  0  0  0  0  0
   -2.8828    0.3867    1.2245 C   0  0  0  0  0  0  0  0  0  0  0  0
   -2.6837   -0.0560    2.3501 O   0  0  0  0  0  0  0  0  0  0  0  0
   -3.7165   -0.3299    0.2255 C   0  0  0  0  0  0  0  0  0  0  0  0
   -3.9541    0.1875   -1.0560 C   0  0  0  0  0  0  0  0  0  0  0  0
   -4.7402   -0.5267   -1.9664 C   0  0  0  0  0  0  0  0  0  0  0  0
   -5.2837   -1.7518   -1.5923 C   0  0  0  0  0  0  0  0  0  0  0  0
   -5.0565   -2.2753   -0.3254 C   0  0  0  0  0  0  0  0  0  0  0  0
   -4.2727   -1.5654    0.5857 C   0  0  0  0  0  0  0  0  0  0  0  0
   -6.0546   -2.4786   -2.4489 O   0  0  0  0  0  0  0  0  0  0  0  0
   -0.7588    2.4616   -1.8568 H   0  0  0  0  0  0  0  0  0  0  0  0
   -1.4498    3.8027   -0.9629 H   0  0  0  0  0  0  0  0  0  0  0  0
    0.2229    3.9055   -1.5072 H   0  0  0  0  0  0  0  0  0  0  0  0
    0.2343    3.1506    2.3013 H   0  0  0  0  0  0  0  0  0  0  0  0
    0.8103    4.3638    1.1334 H   0  0  0  0  0  0  0  0  0  0  0  0
   -0.9140    4.1678    1.4541 H   0  0  0  0  0  0  0  0  0  0  0  0
    2.0605    2.7415   -0.2899 H   0  0  0  0  0  0  0  0  0  0  0  0
    1.1192    0.7548    1.8395 H   0  0  0  0  0  0  0  0  0  0  0  0
    2.5628    1.8112    1.8105 H   0  0  0  0  0  0  0  0  0  0  0  0
    2.3419   -0.9276   -2.7301 H   0  0  0  0  0  0  0  0  0  0  0  0
    3.8191   -0.8068    2.0502 H   0  0  0  0  0  0  0  0  0  0  0  0
    5.2955   -2.8230    1.6102 H   0  0  0  0  0  0  0  0  0  0  0  0
    6.1057   -4.5119    0.0043 H   0  0  0  0  0  0  0  0  0  0  0  0
   -3.5458    1.1445   -1.3714 H   0  0  0  0  0  0  0  0  0  0  0  0
   -4.9171   -0.1128   -2.9548 H   0  0  0  0  0  0  0  0  0  0  0  0
   -5.4875   -3.2333   -0.0466 H   0  0  0  0  0  0  0  0  0  0  0  0
   -4.0987   -1.9827    1.5760 H   0  0  0  0  0  0  0  0  0  0  0  0
   -6.1282   -2.0009   -3.2914 H   0  0  0  0  0  0  0  0  0  0  0  0
  1  2  1  0
  2  3  1  0
  2  4  1  0
  4  5  1  0
  5  6  1  0
  6  7  2  0
  7  8  1  0
  7  9  1  0
  9 10  2  0
 10 11  1  0
 11 12  2  0
 11 13  1  0
 13 14  2  0
 14 15  1  0
 15 16  2  0
 15 17  1  0
  2 18  1  0
 18 19  1  0
 19 20  2  0
 19 21  1  0
 21 22  2  0
 21 23  1  0
 23 24  1  0
 24 25  2  0
 25 26  1  0
 26 27  2  0
 27 28  1  0
 26 29  1  0
  8  4  1  0
 12  6  1  0
 17 10  1  0
 28 23  2  0
  1 30  1  0
  1 31  1  0
  1 32  1  0
  3 33  1  0
  3 34  1  0
  3 35  1  0
  4 36  1  0
  5 37  1  0
  5 38  1  0
  9 39  1  0
 12 40  1  0
 13 41  1  0
 14 42  1  0
 24 43  1  0
 25 44  1  0
 27 45  1  0
 28 46  1  0
 29 47  1  0
M  END
>  <Name>  (154) 
Tschuin (Chuin)

>  <PubChem ID>  (154) 
101311662

>  <CDB ID>  (154) 
CDB0154

>  <Smiles>  (154) 
CC(C)(C1CC2=C(O1)C=C3C(=C2)C=CC(=O)O3)OC(=O)C(=O)C4=CC=C(C=C4)O

>  <Chemical class>  (154) 
7-Oxygenated Coumarins

>  <Natural source>  (154) 
Seseli tschuense

>  <Molecular Formula>  (154) 
C22H18O7

>  <InChI-Key>  (154) 
RNTJDJDUXWVMJY-GOSISDBHSA-N

>  <Total Molweight>  (154) 
394.378

>  <cLogP>  (154) 
2.5536

>  <cLogS>  (154) 
-4.525

>  <H-Acceptors>  (154) 
7

>  <H-Donors>  (154) 
1

>  <Rotatable Bonds>  (154) 
5

>  <Polar Surface Area>  (154) 
99.13

$$$$
CDB0155
     RDKit          3D

 49 52  0  0  0  0  0  0  0  0999 V2000
   -0.2055   -3.9086   -1.7011 C   0  0  0  0  0  0  0  0  0  0  0  0
   -0.3821   -3.2107   -0.3431 C   0  0  0  0  0  0  0  0  0  0  0  0
   -0.3283   -4.2992    0.7477 C   0  0  0  0  0  0  0  0  0  0  0  0
   -1.7388   -2.4593   -0.2366 C   0  0  0  0  0  0  0  0  0  0  0  0
   -1.9233   -1.6700    1.0770 C   0  0  0  0  0  0  0  0  0  0  0  0
   -2.6965   -0.5143    0.5688 C   0  0  0  0  0  0  0  0  0  0  0  0
   -2.6305   -0.4951   -0.8157 C   0  0  0  0  0  0  0  0  0  0  0  0
   -1.9321   -1.5437   -1.3479 O   0  0  0  0  0  0  0  0  0  0  0  0
   -3.2046    0.5106   -1.5616 C   0  0  0  0  0  0  0  0  0  0  0  0
   -3.8745    1.5114   -0.8606 C   0  0  0  0  0  0  0  0  0  0  0  0
   -3.9595    1.5139    0.5409 C   0  0  0  0  0  0  0  0  0  0  0  0
   -3.3539    0.4850    1.2706 C   0  0  0  0  0  0  0  0  0  0  0  0
   -4.6708    2.5993    1.1971 C   0  0  0  0  0  0  0  0  0  0  0  0
   -5.2285    3.5638    0.4591 C   0  0  0  0  0  0  0  0  0  0  0  0
   -5.1561    3.5807   -1.0125 C   0  0  0  0  0  0  0  0  0  0  0  0
   -5.6852    4.4828   -1.6518 O   0  0  0  0  0  0  0  0  0  0  0  0
   -4.4705    2.5392   -1.6209 O   0  0  0  0  0  0  0  0  0  0  0  0
    0.7443   -2.3443   -0.0213 O   0  0  0  0  0  0  0  0  0  0  0  0
    1.1853   -1.3959   -0.8804 C   0  0  0  0  0  0  0  0  0  0  0  0
    0.8110   -1.1788   -2.0174 O   0  0  0  0  0  0  0  0  0  0  0  0
    2.2478   -0.6390   -0.1842 C   0  0  0  0  0  0  0  0  0  0  0  0
    2.8218    0.4137   -0.7858 C   0  0  0  0  0  0  0  0  0  0  0  0
    3.8663    1.2388   -0.1665 C   0  0  0  0  0  0  0  0  0  0  0  0
    3.8624    2.6203   -0.4012 C   0  0  0  0  0  0  0  0  0  0  0  0
    4.8522    3.4370    0.1505 C   0  0  0  0  0  0  0  0  0  0  0  0
    5.8559    2.8731    0.9272 C   0  0  0  0  0  0  0  0  0  0  0  0
    5.8896    1.5027    1.1598 C   0  0  0  0  0  0  0  0  0  0  0  0
    4.8967    0.6866    0.6082 C   0  0  0  0  0  0  0  0  0  0  0  0
    6.8028    3.7059    1.4444 O   0  0  0  0  0  0  0  0  0  0  0  0
   -0.3327   -3.2243   -2.5443 H   0  0  0  0  0  0  0  0  0  0  0  0
   -0.9390   -4.7122   -1.8297 H   0  0  0  0  0  0  0  0  0  0  0  0
    0.7989   -4.3374   -1.7906 H   0  0  0  0  0  0  0  0  0  0  0  0
    0.6153   -4.8553    0.6930 H   0  0  0  0  0  0  0  0  0  0  0  0
   -1.1537   -5.0123    0.6505 H   0  0  0  0  0  0  0  0  0  0  0  0
   -0.3632   -3.8617    1.7517 H   0  0  0  0  0  0  0  0  0  0  0  0
   -2.5510   -3.1968   -0.3247 H   0  0  0  0  0  0  0  0  0  0  0  0
   -2.4703   -2.2559    1.8213 H   0  0  0  0  0  0  0  0  0  0  0  0
   -0.9785   -1.3215    1.5045 H   0  0  0  0  0  0  0  0  0  0  0  0
   -3.1350    0.5193   -2.6426 H   0  0  0  0  0  0  0  0  0  0  0  0
   -3.3848    0.4672    2.3554 H   0  0  0  0  0  0  0  0  0  0  0  0
   -4.7383    2.6113    2.2792 H   0  0  0  0  0  0  0  0  0  0  0  0
   -5.7661    4.3886    0.9108 H   0  0  0  0  0  0  0  0  0  0  0  0
    2.5117   -0.9604    0.8151 H   0  0  0  0  0  0  0  0  0  0  0  0
    2.4997    0.7198   -1.7805 H   0  0  0  0  0  0  0  0  0  0  0  0
    3.0841    3.0759   -1.0099 H   0  0  0  0  0  0  0  0  0  0  0  0
    4.8399    4.5082   -0.0293 H   0  0  0  0  0  0  0  0  0  0  0  0
    6.6762    1.0520    1.7563 H   0  0  0  0  0  0  0  0  0  0  0  0
    4.9475   -0.3857    0.7800 H   0  0  0  0  0  0  0  0  0  0  0  0
    7.4440    3.1754    1.9447 H   0  0  0  0  0  0  0  0  0  0  0  0
  1  2  1  0
  2  3  1  0
  2  4  1  0
  4  5  1  0
  5  6  1  0
  6  7  2  0
  7  8  1  0
  7  9  1  0
  9 10  2  0
 10 11  1  0
 11 12  2  0
 11 13  1  0
 13 14  2  0
 14 15  1  0
 15 16  2  0
 15 17  1  0
  2 18  1  0
 18 19  1  0
 19 20  2  0
 19 21  1  0
 21 22  2  3
 22 23  1  0
 23 24  1  0
 24 25  2  0
 25 26  1  0
 26 27  2  0
 27 28  1  0
 26 29  1  0
  8  4  1  0
 12  6  1  0
 17 10  1  0
 28 23  2  0
  1 30  1  0
  1 31  1  0
  1 32  1  0
  3 33  1  0
  3 34  1  0
  3 35  1  0
  4 36  1  0
  5 37  1  0
  5 38  1  0
  9 39  1  0
 12 40  1  0
 13 41  1  0
 14 42  1  0
 21 43  1  0
 22 44  1  0
 24 45  1  0
 25 46  1  0
 27 47  1  0
 28 48  1  0
 29 49  1  0
M  END
>  <Name>  (155) 
Secorin

>  <PubChem ID>  (155) 
101311663

>  <CDB ID>  (155) 
CDB0155

>  <Smiles>  (155) 
CC(C)(C1CC2=C(O1)C=C3C(=C2)C=CC(=O)O3)OC(=O)C=CC4=CC=C(C=C4)O

>  <Chemical class>  (155) 
7-Oxygenated Coumarins

>  <Natural source>  (155) 
Seseli coronatum

>  <Molecular Formula>  (155) 
C23H20O6

>  <InChI-Key>  (155) 
RKAIOFHOPUEFQQ-HXUWFJFHSA-N

>  <Total Molweight>  (155) 
392.406

>  <cLogP>  (155) 
3.773

>  <cLogS>  (155) 
-4.749

>  <H-Acceptors>  (155) 
6

>  <H-Donors>  (155) 
1

>  <Rotatable Bonds>  (155) 
5

>  <Polar Surface Area>  (155) 
82.06

$$$$
CDB0156
     RDKit          3D

 32 34  0  0  0  0  0  0  0  0999 V2000
    3.3226   -0.6615    0.7248 C   0  0  0  0  0  0  0  0  0  0  0  0
    3.0895    0.3139   -0.4346 C   0  0  0  0  0  0  0  0  0  0  0  0
    3.7881    1.6414   -0.1060 C   0  0  0  0  0  0  0  0  0  0  0  0
    1.5875    0.5537   -0.7251 C   0  0  0  0  0  0  0  0  0  0  0  0
    0.8253   -0.6860   -1.2335 C   0  0  0  0  0  0  0  0  0  0  0  0
   -0.4905   -0.4327   -0.6004 C   0  0  0  0  0  0  0  0  0  0  0  0
   -0.3572    0.5607    0.3592 C   0  0  0  0  0  0  0  0  0  0  0  0
    0.9083    1.0754    0.4495 O   0  0  0  0  0  0  0  0  0  0  0  0
   -1.4129    0.9601    1.1491 C   0  0  0  0  0  0  0  0  0  0  0  0
   -2.6359    0.3272    0.9340 C   0  0  0  0  0  0  0  0  0  0  0  0
   -2.7985   -0.6791   -0.0316 C   0  0  0  0  0  0  0  0  0  0  0  0
   -1.7040   -1.0709   -0.8100 C   0  0  0  0  0  0  0  0  0  0  0  0
   -4.1070   -1.2937   -0.1885 C   0  0  0  0  0  0  0  0  0  0  0  0
   -5.1223   -0.8901    0.5809 C   0  0  0  0  0  0  0  0  0  0  0  0
   -4.9771    0.1658    1.5983 C   0  0  0  0  0  0  0  0  0  0  0  0
   -5.9346    0.5091    2.2821 O   0  0  0  0  0  0  0  0  0  0  0  0
   -3.7208    0.7387    1.7360 O   0  0  0  0  0  0  0  0  0  0  0  0
    3.7144   -0.2469   -1.5977 O   0  0  0  0  0  0  0  0  0  0  0  0
    4.3960   -0.7887    0.9100 H   0  0  0  0  0  0  0  0  0  0  0  0
    2.9423   -1.6619    0.4969 H   0  0  0  0  0  0  0  0  0  0  0  0
    2.8568   -0.3137    1.6523 H   0  0  0  0  0  0  0  0  0  0  0  0
    3.3960    2.0934    0.8107 H   0  0  0  0  0  0  0  0  0  0  0  0
    4.8676    1.4937    0.0144 H   0  0  0  0  0  0  0  0  0  0  0  0
    3.6663    2.3599   -0.9247 H   0  0  0  0  0  0  0  0  0  0  0  0
    1.5075    1.3307   -1.5013 H   0  0  0  0  0  0  0  0  0  0  0  0
    0.7777   -0.7044   -2.3262 H   0  0  0  0  0  0  0  0  0  0  0  0
    1.2360   -1.6308   -0.8697 H   0  0  0  0  0  0  0  0  0  0  0  0
   -1.2967    1.7320    1.9000 H   0  0  0  0  0  0  0  0  0  0  0  0
   -1.7906   -1.8570   -1.5537 H   0  0  0  0  0  0  0  0  0  0  0  0
   -4.2406   -2.0738   -0.9298 H   0  0  0  0  0  0  0  0  0  0  0  0
   -6.1112   -1.3237    0.4938 H   0  0  0  0  0  0  0  0  0  0  0  0
    3.8180    0.4596   -2.2589 H   0  0  0  0  0  0  0  0  0  0  0  0
  1  2  1  0
  2  3  1  0
  2  4  1  0
  4  5  1  0
  5  6  1  0
  6  7  2  0
  7  8  1  0
  7  9  1  0
  9 10  2  0
 10 11  1  0
 11 12  2  0
 11 13  1  0
 13 14  2  0
 14 15  1  0
 15 16  2  0
 15 17  1  0
  2 18  1  0
  8  4  1  0
 12  6  1  0
 17 10  1  0
  1 19  1  0
  1 20  1  0
  1 21  1  0
  3 22  1  0
  3 23  1  0
  3 24  1  0
  4 25  1  0
  5 26  1  0
  5 27  1  0
  9 28  1  0
 12 29  1  0
 13 30  1  0
 14 31  1  0
 18 32  1  0
M  END
>  <Name>  (156) 
Marmesin

>  <PubChem ID>  (156) 
334704

>  <CDB ID>  (156) 
CDB0156

>  <Smiles>  (156) 
CC(C)(C1CC2=C(O1)C=C3C(=C2)C=CC(=O)O3)O

>  <Chemical class>  (156) 
7-Oxygenated Coumarins

>  <Natural source>  (156) 
Aegle marmelos

>  <Molecular Formula>  (156) 
C14H14O4

>  <InChI-Key>  (156) 
FWYSBEAFFPBAQU-GFCCVEGCSA-N

>  <Total Molweight>  (156) 
246.261

>  <cLogP>  (156) 
1.8611

>  <cLogS>  (156) 
-3.095

>  <H-Acceptors>  (156) 
4

>  <H-Donors>  (156) 
1

>  <Rotatable Bonds>  (156) 
1

>  <Polar Surface Area>  (156) 
55.76

$$$$
CDB0157
     RDKit          3D

 53 56  0  0  0  0  0  0  0  0999 V2000
   -0.9279    1.2085   -2.1055 C   0  0  0  0  0  0  0  0  0  0  0  0
   -0.3025    1.1284   -0.7039 C   0  0  0  0  0  0  0  0  0  0  0  0
    0.2041    2.5088   -0.2519 C   0  0  0  0  0  0  0  0  0  0  0  0
    0.8564    0.0834   -0.7045 C   0  0  0  0  0  0  0  0  0  0  0  0
    1.9305    0.2663   -1.7944 C   0  0  0  0  0  0  0  0  0  0  0  0
    3.1178   -0.2177   -1.0524 C   0  0  0  0  0  0  0  0  0  0  0  0
    2.8189   -0.2755    0.3010 C   0  0  0  0  0  0  0  0  0  0  0  0
    1.5282    0.0735    0.5940 O   0  0  0  0  0  0  0  0  0  0  0  0
    3.7584   -0.6327    1.2429 C   0  0  0  0  0  0  0  0  0  0  0  0
    5.0316   -0.9503    0.7736 C   0  0  0  0  0  0  0  0  0  0  0  0
    5.3600   -0.9028   -0.5907 C   0  0  0  0  0  0  0  0  0  0  0  0
    4.3866   -0.5232   -1.5215 C   0  0  0  0  0  0  0  0  0  0  0  0
    6.7140   -1.2437   -0.9969 C   0  0  0  0  0  0  0  0  0  0  0  0
    7.6118   -1.5957   -0.0716 C   0  0  0  0  0  0  0  0  0  0  0  0
    7.2904   -1.6554    1.3651 C   0  0  0  0  0  0  0  0  0  0  0  0
    8.1426   -1.9851    2.1818 O   0  0  0  0  0  0  0  0  0  0  0  0
    5.9945   -1.3240    1.7342 O   0  0  0  0  0  0  0  0  0  0  0  0
   -1.2445    0.6257    0.2712 O   0  0  0  0  0  0  0  0  0  0  0  0
   -2.5166    1.2602    0.3695 C   0  0  0  0  0  0  0  0  0  0  0  0
   -3.0078    1.1686    1.8268 C   0  0  0  0  0  0  0  0  0  0  0  0
   -3.2478   -0.2882    2.2500 C   0  0  0  0  0  0  0  0  0  0  0  0
   -3.3526   -1.2500    1.0604 C   0  0  0  0  0  0  0  0  0  0  0  0
   -4.0157   -0.5913   -0.1576 C   0  0  0  0  0  0  0  0  0  0  0  0
   -3.4327    0.6621   -0.5558 O   0  0  0  0  0  0  0  0  0  0  0  0
   -5.5316   -0.3889   -0.0081 C   0  0  0  0  0  0  0  0  0  0  0  0
   -6.0664    0.0856   -1.2479 O   0  0  0  0  0  0  0  0  0  0  0  0
   -4.0304   -2.4395    1.4870 O   0  0  0  0  0  0  0  0  0  0  0  0
   -4.4384   -0.3590    3.0612 O   0  0  0  0  0  0  0  0  0  0  0  0
   -4.2086    1.9398    2.0007 O   0  0  0  0  0  0  0  0  0  0  0  0
   -0.2018    1.5213   -2.8622 H   0  0  0  0  0  0  0  0  0  0  0  0
   -1.3415    0.2380   -2.4014 H   0  0  0  0  0  0  0  0  0  0  0  0
   -1.7508    1.9299   -2.1412 H   0  0  0  0  0  0  0  0  0  0  0  0
   -0.5805    3.2692   -0.3210 H   0  0  0  0  0  0  0  0  0  0  0  0
    0.5199    2.4890    0.7970 H   0  0  0  0  0  0  0  0  0  0  0  0
    1.0412    2.8606   -0.8615 H   0  0  0  0  0  0  0  0  0  0  0  0
    0.4134   -0.9198   -0.8060 H   0  0  0  0  0  0  0  0  0  0  0  0
    2.0800    1.3104   -2.0819 H   0  0  0  0  0  0  0  0  0  0  0  0
    1.7063   -0.3329   -2.6816 H   0  0  0  0  0  0  0  0  0  0  0  0
    3.5157   -0.6675    2.2979 H   0  0  0  0  0  0  0  0  0  0  0  0
    4.6124   -0.4598   -2.5814 H   0  0  0  0  0  0  0  0  0  0  0  0
    6.9774   -1.2076   -2.0481 H   0  0  0  0  0  0  0  0  0  0  0  0
    8.6297   -1.8566   -0.3348 H   0  0  0  0  0  0  0  0  0  0  0  0
   -2.4551    2.3186    0.1008 H   0  0  0  0  0  0  0  0  0  0  0  0
   -2.2567    1.6055    2.4953 H   0  0  0  0  0  0  0  0  0  0  0  0
   -2.4237   -0.6285    2.8887 H   0  0  0  0  0  0  0  0  0  0  0  0
   -2.3361   -1.5490    0.7767 H   0  0  0  0  0  0  0  0  0  0  0  0
   -3.8790   -1.2601   -1.0172 H   0  0  0  0  0  0  0  0  0  0  0  0
   -5.7800    0.3547    0.7516 H   0  0  0  0  0  0  0  0  0  0  0  0
   -6.0414   -1.3249    0.2365 H   0  0  0  0  0  0  0  0  0  0  0  0
   -5.5146    0.8561   -1.4857 H   0  0  0  0  0  0  0  0  0  0  0  0
   -3.9753   -3.0837    0.7569 H   0  0  0  0  0  0  0  0  0  0  0  0
   -4.6718   -1.3128    3.0668 H   0  0  0  0  0  0  0  0  0  0  0  0
   -4.7101    1.4621    2.6977 H   0  0  0  0  0  0  0  0  0  0  0  0
  1  2  1  0
  2  3  1  0
  2  4  1  0
  4  5  1  0
  5  6  1  0
  6  7  2  0
  7  8  1  0
  7  9  1  0
  9 10  2  0
 10 11  1  0
 11 12  2  0
 11 13  1  0
 13 14  2  0
 14 15  1  0
 15 16  2  0
 15 17  1  0
  2 18  1  0
 18 19  1  0
 19 20  1  0
 20 21  1  0
 21 22  1  0
 22 23  1  0
 23 24  1  0
 23 25  1  0
 25 26  1  0
 22 27  1  0
 21 28  1  0
 20 29  1  0
  8  4  1  0
 12  6  1  0
 17 10  1  0
 24 19  1  0
  1 30  1  0
  1 31  1  0
  1 32  1  0
  3 33  1  0
  3 34  1  0
  3 35  1  0
  4 36  1  0
  5 37  1  0
  5 38  1  0
  9 39  1  0
 12 40  1  0
 13 41  1  0
 14 42  1  0
 19 43  1  0
 20 44  1  0
 21 45  1  0
 22 46  1  0
 23 47  1  0
 25 48  1  0
 25 49  1  0
 26 50  1  0
 27 51  1  0
 28 52  1  0
 29 53  1  0
M  END
>  <Name>  (157) 
Ammajin (Marmesinin)

>  <PubChem ID>  (157) 
216283

>  <CDB ID>  (157) 
CDB0157

>  <Smiles>  (157) 
CC(C)(C1CC2=C(O1)C=C3C(=C2)C=CC(=O)O3)OC4C(C(C(C(O4)CO)O)O)O

>  <Chemical class>  (157) 
7-Oxygenated Coumarins

>  <Natural source>  (157) 
Ammi majus

>  <Molecular Formula>  (157) 
C20H24O9

>  <InChI-Key>  (157) 
HXCGUCZXPFBNRD-UHFFFAOYSA-N

>  <Total Molweight>  (157) 
408.402

>  <cLogP>  (157) 
0.024

>  <cLogS>  (157) 
-2.795

>  <H-Acceptors>  (157) 
9

>  <H-Donors>  (157) 
4

>  <Rotatable Bonds>  (157) 
4

>  <Polar Surface Area>  (157) 
134.91

$$$$
CDB0158
     RDKit          3D

 42 44  0  0  0  0  0  0  0  0999 V2000
    7.1744    1.0465   -0.1786 C   0  0  0  0  0  0  0  0  0  0  0  0
    6.6482   -0.4563    0.6797 S   0  0  0  0  0  0  0  0  0  0  0  0
    5.4059    0.1925    1.6872 C   0  0  0  0  0  0  0  0  0  0  0  0
    4.1132    0.3361    1.3660 C   0  0  0  0  0  0  0  0  0  0  0  0
    3.4789    0.0343    0.0635 C   0  0  0  0  0  0  0  0  0  0  0  0
    4.0218    0.0638   -1.0247 O   0  0  0  0  0  0  0  0  0  0  0  0
    2.1801   -0.2509    0.3202 O   0  0  0  0  0  0  0  0  0  0  0  0
    1.2399   -0.5655   -0.7557 C   0  0  0  0  0  0  0  0  0  0  0  0
    1.6812   -1.8496   -1.4742 C   0  0  0  0  0  0  0  0  0  0  0  0
    1.1345    0.6222   -1.7256 C   0  0  0  0  0  0  0  0  0  0  0  0
   -0.1126   -0.8119   -0.0232 C   0  0  2  0  0  0  0  0  0  0  0  0
   -1.2550   -1.3715   -0.8932 C   0  0  0  0  0  0  0  0  0  0  0  0
   -2.4075   -0.7044   -0.2443 C   0  0  0  0  0  0  0  0  0  0  0  0
   -1.9455    0.3217    0.5667 C   0  0  0  0  0  0  0  0  0  0  0  0
   -2.8024    1.1572    1.2487 C   0  0  0  0  0  0  0  0  0  0  0  0
   -4.1672    0.9179    1.0994 C   0  0  0  0  0  0  0  0  0  0  0  0
   -5.0478    1.7666    1.8021 O   0  0  0  0  0  0  0  0  0  0  0  0
   -6.4237    1.6094    1.7149 C   0  0  0  0  0  0  0  0  0  0  0  0
   -7.2075    2.3335    2.3177 O   0  0  0  0  0  0  0  0  0  0  0  0
   -6.9186    0.5200    0.8550 C   0  0  0  0  0  0  0  0  0  0  0  0
   -6.1008   -0.2943    0.1812 C   0  0  0  0  0  0  0  0  0  0  0  0
   -4.6616   -0.1154    0.2874 C   0  0  0  0  0  0  0  0  0  0  0  0
   -3.7652   -0.9387   -0.4028 C   0  0  0  0  0  0  0  0  0  0  0  0
   -0.5810    0.4258    0.5980 O   0  0  0  0  0  0  0  0  0  0  0  0
    7.5450    1.7841    0.5388 H   0  0  0  0  0  0  0  0  0  0  0  0
    6.3500    1.4829   -0.7484 H   0  0  0  0  0  0  0  0  0  0  0  0
    7.9828    0.8001   -0.8721 H   0  0  0  0  0  0  0  0  0  0  0  0
    5.7120    0.4590    2.6957 H   0  0  0  0  0  0  0  0  0  0  0  0
    3.4272    0.7058    2.1223 H   0  0  0  0  0  0  0  0  0  0  0  0
    2.6479   -1.7301   -1.9721 H   0  0  0  0  0  0  0  0  0  0  0  0
    0.9636   -2.1574   -2.2410 H   0  0  0  0  0  0  0  0  0  0  0  0
    1.8007   -2.6704   -0.7580 H   0  0  0  0  0  0  0  0  0  0  0  0
    0.3195    0.4957   -2.4438 H   0  0  0  0  0  0  0  0  0  0  0  0
    0.9795    1.5616   -1.1837 H   0  0  0  0  0  0  0  0  0  0  0  0
    2.0515    0.7515   -2.3088 H   0  0  0  0  0  0  0  0  0  0  0  0
    0.0681   -1.5030    0.8149 H   0  0  0  0  0  0  0  0  0  0  0  0
   -1.1931   -1.0604   -1.9394 H   0  0  0  0  0  0  0  0  0  0  0  0
   -1.3038   -2.4627   -0.8352 H   0  0  0  0  0  0  0  0  0  0  0  0
   -2.4306    1.9599    1.8737 H   0  0  0  0  0  0  0  0  0  0  0  0
   -7.9957    0.4183    0.8016 H   0  0  0  0  0  0  0  0  0  0  0  0
   -6.4916   -1.0884   -0.4453 H   0  0  0  0  0  0  0  0  0  0  0  0
   -4.1146   -1.7357   -1.0519 H   0  0  0  0  0  0  0  0  0  0  0  0
  1  2  1  0
  2  3  1  0
  3  4  2  3
  4  5  1  0
  5  6  2  0
  5  7  1  0
  7  8  1  0
  8  9  1  0
  8 10  1  0
  8 11  1  0
 11 12  1  0
 12 13  1  0
 13 14  2  0
 14 15  1  0
 15 16  2  0
 16 17  1  0
 17 18  1  0
 18 19  2  0
 18 20  1  0
 20 21  2  0
 21 22  1  0
 22 23  2  0
 14 24  1  0
 24 11  1  0
 23 13  1  0
 22 16  1  0
  1 25  1  0
  1 26  1  0
  1 27  1  0
  3 28  1  0
  4 29  1  0
  9 30  1  0
  9 31  1  0
  9 32  1  0
 10 33  1  0
 10 34  1  0
 10 35  1  0
 11 36  1  1
 12 37  1  0
 12 38  1  0
 15 39  1  0
 20 40  1  0
 21 41  1  0
 23 42  1  0
M  END
>  <Name>  (158) 
Seseliflorin

>  <PubChem ID>  (158) 
90471425

>  <CDB ID>  (158) 
CDB0158

>  <Smiles>  (158) 
CSC=CC(=O)OC(C)(C)[C@@H]1CC2=C(C=C3OC(=O)C=CC3=C2)O1

>  <Chemical class>  (158) 
7-Oxygenated Coumarins

>  <Natural source>  (158) 
Seseli sesseliflorum

>  <Molecular Formula>  (158) 
C18H18O5S

>  <InChI-Key>  (158) 
QYKVXEXDHLGBTM-HNNXBMFYSA-N

>  <Total Molweight>  (158) 
346.402

>  <cLogP>  (158) 
2.6578

>  <cLogS>  (158) 
-4.096

>  <H-Acceptors>  (158) 
5

>  <H-Donors>  (158) 
0

>  <Rotatable Bonds>  (158) 
5

>  <Polar Surface Area>  (158) 
87.13

$$$$
CDB0159
     RDKit          3D

 44 46  0  0  0  0  0  0  0  0999 V2000
   -5.2419   -0.4628    2.6690 C   0  0  0  0  0  0  0  0  0  0  0  0
   -4.1500   -0.6743    1.6687 C   0  0  0  0  0  0  0  0  0  0  0  0
   -3.4609   -1.8077    1.4208 C   0  0  0  0  0  0  0  0  0  0  0  0
   -3.6677   -3.1258    2.1107 C   0  0  0  0  0  0  0  0  0  0  0  0
   -2.3723   -1.8456    0.3893 C   0  0  0  0  0  0  0  0  0  0  0  0
   -1.6449   -2.8148    0.2300 O   0  0  0  0  0  0  0  0  0  0  0  0
   -2.3267   -0.6998   -0.3303 O   0  0  0  0  0  0  0  0  0  0  0  0
   -1.3162   -0.5069   -1.3672 C   0  0  0  0  0  0  0  0  0  0  0  0
   -1.4877   -1.5594   -2.4740 C   0  0  0  0  0  0  0  0  0  0  0  0
   -1.6682    0.8727   -1.9557 C   0  0  0  0  0  0  0  0  0  0  0  0
    0.1122   -0.5121   -0.7529 C   0  0  0  0  0  0  0  0  0  0  0  0
    1.2612   -0.4215   -1.7766 C   0  0  0  0  0  0  0  0  0  0  0  0
    2.2252    0.3847   -0.9920 C   0  0  0  0  0  0  0  0  0  0  0  0
    1.5728    0.9505    0.0938 C   0  0  0  0  0  0  0  0  0  0  0  0
    0.2542    0.5955    0.1899 O   0  0  0  0  0  0  0  0  0  0  0  0
    2.2106    1.8043    0.9667 C   0  0  0  0  0  0  0  0  0  0  0  0
    3.5565    2.0682    0.7192 C   0  0  0  0  0  0  0  0  0  0  0  0
    4.2417    1.5057   -0.3697 C   0  0  0  0  0  0  0  0  0  0  0  0
    3.5620    0.6526   -1.2460 C   0  0  0  0  0  0  0  0  0  0  0  0
    5.6452    1.8354   -0.5593 C   0  0  0  0  0  0  0  0  0  0  0  0
    6.2514    2.6599    0.3001 C   0  0  0  0  0  0  0  0  0  0  0  0
    5.5537    3.2623    1.4495 C   0  0  0  0  0  0  0  0  0  0  0  0
    6.1463    4.0153    2.2139 O   0  0  0  0  0  0  0  0  0  0  0  0
    4.2150    2.9370    1.6143 O   0  0  0  0  0  0  0  0  0  0  0  0
   -4.9786    0.3736    3.3246 H   0  0  0  0  0  0  0  0  0  0  0  0
   -6.1717   -0.2077    2.1511 H   0  0  0  0  0  0  0  0  0  0  0  0
   -5.4343   -1.3285    3.3045 H   0  0  0  0  0  0  0  0  0  0  0  0
   -3.9111    0.2288    1.1075 H   0  0  0  0  0  0  0  0  0  0  0  0
   -3.8406   -3.9183    1.3740 H   0  0  0  0  0  0  0  0  0  0  0  0
   -4.5260   -3.1339    2.7854 H   0  0  0  0  0  0  0  0  0  0  0  0
   -2.7827   -3.3884    2.7001 H   0  0  0  0  0  0  0  0  0  0  0  0
   -1.1375   -2.5458   -2.1552 H   0  0  0  0  0  0  0  0  0  0  0  0
   -0.9288   -1.2928   -3.3771 H   0  0  0  0  0  0  0  0  0  0  0  0
   -2.5438   -1.6706   -2.7448 H   0  0  0  0  0  0  0  0  0  0  0  0
   -2.6920    0.8719   -2.3494 H   0  0  0  0  0  0  0  0  0  0  0  0
   -1.6444    1.6523   -1.1860 H   0  0  0  0  0  0  0  0  0  0  0  0
   -0.9962    1.1656   -2.7673 H   0  0  0  0  0  0  0  0  0  0  0  0
    0.2619   -1.4177   -0.1519 H   0  0  0  0  0  0  0  0  0  0  0  0
    0.9876    0.1188   -2.6867 H   0  0  0  0  0  0  0  0  0  0  0  0
    1.6422   -1.4129   -2.0379 H   0  0  0  0  0  0  0  0  0  0  0  0
    1.6893    2.2450    1.8075 H   0  0  0  0  0  0  0  0  0  0  0  0
    4.0577    0.2133   -2.1060 H   0  0  0  0  0  0  0  0  0  0  0  0
    6.1822    1.4053   -1.3975 H   0  0  0  0  0  0  0  0  0  0  0  0
    7.2953    2.9285    0.1926 H   0  0  0  0  0  0  0  0  0  0  0  0
  1  2  1  0
  2  3  2  3
  3  4  1  0
  3  5  1  0
  5  6  2  0
  5  7  1  0
  7  8  1  0
  8  9  1  0
  8 10  1  0
  8 11  1  0
 11 12  1  0
 12 13  1  0
 13 14  2  0
 14 15  1  0
 14 16  1  0
 16 17  2  0
 17 18  1  0
 18 19  2  0
 18 20  1  0
 20 21  2  0
 21 22  1  0
 22 23  2  0
 22 24  1  0
 15 11  1  0
 19 13  1  0
 24 17  1  0
  1 25  1  0
  1 26  1  0
  1 27  1  0
  2 28  1  0
  4 29  1  0
  4 30  1  0
  4 31  1  0
  9 32  1  0
  9 33  1  0
  9 34  1  0
 10 35  1  0
 10 36  1  0
 10 37  1  0
 11 38  1  0
 12 39  1  0
 12 40  1  0
 16 41  1  0
 19 42  1  0
 20 43  1  0
 21 44  1  0
M  END
>  <Name>  (159) 
Deltoin

>  <PubChem ID>  (159) 
906525

>  <CDB ID>  (159) 
CDB0159

>  <Smiles>  (159) 
CC=C(C)C(=O)OC(C)(C)C1CC2=C(O1)C=C3C(=C2)C=CC(=O)O3

>  <Chemical class>  (159) 
7-Oxygenated Coumarins

>  <Natural source>  (159) 
Peucedanum deltoideum

>  <Molecular Formula>  (159) 
C19H20O5

>  <InChI-Key>  (159) 
HHNCJFKRMZDTHW-MRXNPFEDSA-N

>  <Total Molweight>  (159) 
328.363

>  <cLogP>  (159) 
3.6087

>  <cLogS>  (159) 
-3.941

>  <H-Acceptors>  (159) 
5

>  <H-Donors>  (159) 
0

>  <Rotatable Bonds>  (159) 
4

>  <Polar Surface Area>  (159) 
61.83

$$$$
CDB0160
     RDKit          3D

 44 46  0  0  0  0  0  0  0  0999 V2000
    0.7810    0.0901    2.5656 C   0  0  0  0  0  0  0  0  0  0  0  0
    0.4146    0.1782    1.0763 C   0  0  0  0  0  0  0  0  0  0  0  0
    1.5270   -0.4295    0.2103 C   0  0  0  0  0  0  0  0  0  0  0  0
    2.7473    0.2925    0.4290 O   0  0  0  0  0  0  0  0  0  0  0  0
    3.8010   -0.1707   -0.2937 C   0  0  0  0  0  0  0  0  0  0  0  0
    3.7711   -1.0967   -1.0843 O   0  0  0  0  0  0  0  0  0  0  0  0
    4.9762    0.6673    0.0468 C   0  0  0  0  0  0  0  0  0  0  0  0
    6.2615    0.4193   -0.2737 C   0  0  0  0  0  0  0  0  0  0  0  0
    7.3378    1.4034    0.1061 C   0  0  0  0  0  0  0  0  0  0  0  0
    6.7713   -0.7955   -1.0002 C   0  0  0  0  0  0  0  0  0  0  0  0
   -0.9403   -0.5028    0.8042 C   0  0  0  0  0  0  0  0  0  0  0  0
   -1.4067   -0.3946   -0.6610 C   0  0  0  0  0  0  0  0  0  0  0  0
   -2.8672   -0.2847   -0.4431 C   0  0  0  0  0  0  0  0  0  0  0  0
   -3.1054    0.0236    0.8882 C   0  0  0  0  0  0  0  0  0  0  0  0
   -1.9667    0.0972    1.6450 O   0  0  0  0  0  0  0  0  0  0  0  0
   -4.3753    0.2520    1.3704 C   0  0  0  0  0  0  0  0  0  0  0  0
   -5.4235    0.1455    0.4581 C   0  0  0  0  0  0  0  0  0  0  0  0
   -5.2104   -0.1682   -0.8941 C   0  0  0  0  0  0  0  0  0  0  0  0
   -3.9068   -0.3809   -1.3557 C   0  0  0  0  0  0  0  0  0  0  0  0
   -6.3589   -0.2543   -1.7819 C   0  0  0  0  0  0  0  0  0  0  0  0
   -7.5853   -0.0374   -1.2975 C   0  0  0  0  0  0  0  0  0  0  0  0
   -7.8342    0.2912    0.1171 C   0  0  0  0  0  0  0  0  0  0  0  0
   -8.9753    0.4821    0.5216 O   0  0  0  0  0  0  0  0  0  0  0  0
   -6.7265    0.3711    0.9490 O   0  0  0  0  0  0  0  0  0  0  0  0
    1.7285    0.5984    2.7718 H   0  0  0  0  0  0  0  0  0  0  0  0
    0.0182    0.5654    3.1907 H   0  0  0  0  0  0  0  0  0  0  0  0
    0.8798   -0.9528    2.8854 H   0  0  0  0  0  0  0  0  0  0  0  0
    0.3304    1.2490    0.8463 H   0  0  0  0  0  0  0  0  0  0  0  0
    1.6753   -1.4848    0.4712 H   0  0  0  0  0  0  0  0  0  0  0  0
    1.2677   -0.3560   -0.8517 H   0  0  0  0  0  0  0  0  0  0  0  0
    4.7258    1.5710    0.5962 H   0  0  0  0  0  0  0  0  0  0  0  0
    6.9352    2.2861    0.6142 H   0  0  0  0  0  0  0  0  0  0  0  0
    7.8669    1.7486   -0.7883 H   0  0  0  0  0  0  0  0  0  0  0  0
    8.0618    0.9338    0.7801 H   0  0  0  0  0  0  0  0  0  0  0  0
    7.0401   -0.5334   -2.0284 H   0  0  0  0  0  0  0  0  0  0  0  0
    6.0593   -1.6216   -1.0284 H   0  0  0  0  0  0  0  0  0  0  0  0
    7.6669   -1.1829   -0.5014 H   0  0  0  0  0  0  0  0  0  0  0  0
   -0.8813   -1.5628    1.0931 H   0  0  0  0  0  0  0  0  0  0  0  0
   -1.1212   -1.2754   -1.2425 H   0  0  0  0  0  0  0  0  0  0  0  0
   -1.0371    0.5143   -1.1474 H   0  0  0  0  0  0  0  0  0  0  0  0
   -4.5487    0.4994    2.4105 H   0  0  0  0  0  0  0  0  0  0  0  0
   -3.7055   -0.6075   -2.3980 H   0  0  0  0  0  0  0  0  0  0  0  0
   -6.2035   -0.4943   -2.8279 H   0  0  0  0  0  0  0  0  0  0  0  0
   -8.4650   -0.0927   -1.9271 H   0  0  0  0  0  0  0  0  0  0  0  0
  1  2  1  0
  2  3  1  0
  3  4  1  0
  4  5  1  0
  5  6  2  0
  5  7  1  0
  7  8  2  3
  8  9  1  0
  8 10  1  0
  2 11  1  0
 11 12  1  0
 12 13  1  0
 13 14  2  0
 14 15  1  0
 14 16  1  0
 16 17  2  0
 17 18  1  0
 18 19  2  0
 18 20  1  0
 20 21  2  0
 21 22  1  0
 22 23  2  0
 22 24  1  0
 15 11  1  0
 19 13  1  0
 24 17  1  0
  1 25  1  0
  1 26  1  0
  1 27  1  0
  2 28  1  0
  3 29  1  0
  3 30  1  0
  7 31  1  0
  9 32  1  0
  9 33  1  0
  9 34  1  0
 10 35  1  0
 10 36  1  0
 10 37  1  0
 11 38  1  0
 12 39  1  0
 12 40  1  0
 16 41  1  0
 19 42  1  0
 20 43  1  0
 21 44  1  0
M  END
>  <Name>  (160) 
Prantschimgin

>  <PubChem ID>  (160) 
25785

>  <CDB ID>  (160) 
CDB0160

>  <Smiles>  (160) 
CC(COC(=O)C=C(C)C)C1CC2=C(O1)C=C3C(=C2)C=CC(=O)O3

>  <Chemical class>  (160) 
7-Oxygenated Coumarins

>  <Natural source>  (160) 
Prangos tschimganica

>  <Molecular Formula>  (160) 
C19H20O5

>  <InChI-Key>  (160) 
FZZIJTGITFAJET-UHFFFAOYSA-N

>  <Total Molweight>  (160) 
328.363

>  <cLogP>  (160) 
3.5415

>  <cLogS>  (160) 
-3.884

>  <H-Acceptors>  (160) 
5

>  <H-Donors>  (160) 
0

>  <Rotatable Bonds>  (160) 
5

>  <Polar Surface Area>  (160) 
61.83

$$$$
CDB0161
     RDKit          3D

 44 47  0  0  0  0  0  0  0  0999 V2000
    1.0706   -1.4744   -2.6094 C   0  0  0  0  0  0  0  0  0  0  0  0
    0.8700   -1.1516   -1.1211 C   0  0  0  0  0  0  0  0  0  0  0  0
    0.6098   -2.4196   -0.2930 C   0  0  0  0  0  0  0  0  0  0  0  0
   -0.2911   -0.1260   -0.9592 C   0  0  0  0  0  0  0  0  0  0  0  0
   -1.6310   -0.5203   -1.6103 C   0  0  0  0  0  0  0  0  0  0  0  0
   -2.5660    0.0930   -0.6387 C   0  0  0  0  0  0  0  0  0  0  0  0
   -1.8753    0.4165    0.5199 C   0  0  0  0  0  0  0  0  0  0  0  0
   -0.5364    0.1390    0.4573 O   0  0  0  0  0  0  0  0  0  0  0  0
   -2.5061    0.9466    1.6238 C   0  0  0  0  0  0  0  0  0  0  0  0
   -3.8797    1.1594    1.5226 C   0  0  0  0  0  0  0  0  0  0  0  0
   -4.6025    0.8436    0.3610 C   0  0  0  0  0  0  0  0  0  0  0  0
   -3.9346    0.2940   -0.7388 C   0  0  0  0  0  0  0  0  0  0  0  0
   -6.0353    1.0912    0.3394 C   0  0  0  0  0  0  0  0  0  0  0  0
   -6.6312    1.6132    1.4156 C   0  0  0  0  0  0  0  0  0  0  0  0
   -5.8937    1.9556    2.6444 C   0  0  0  0  0  0  0  0  0  0  0  0
   -6.4778    2.4354    3.6092 O   0  0  0  0  0  0  0  0  0  0  0  0
   -4.5282    1.7095    2.6480 O   0  0  0  0  0  0  0  0  0  0  0  0
    2.0431   -0.4502   -0.6002 O   0  0  0  0  0  0  0  0  0  0  0  0
    3.2641   -1.0294   -0.5649 C   0  0  0  0  0  0  0  0  0  0  0  0
    3.5571   -2.1366   -0.9837 O   0  0  0  0  0  0  0  0  0  0  0  0
    4.2497   -0.1041    0.0582 C   0  0  0  0  0  0  0  0  0  0  0  0
    5.6029   -0.4698    0.0426 C   0  0  0  0  0  0  0  0  0  0  0  0
    6.5649    0.3641    0.6162 C   0  0  0  0  0  0  0  0  0  0  0  0
    6.1808    1.5654    1.2105 C   0  0  0  0  0  0  0  0  0  0  0  0
    4.8363    1.9350    1.2345 C   0  0  0  0  0  0  0  0  0  0  0  0
    3.8707    1.1038    0.6613 C   0  0  0  0  0  0  0  0  0  0  0  0
    0.1802   -1.9305   -3.0530 H   0  0  0  0  0  0  0  0  0  0  0  0
    1.3146   -0.5658   -3.1715 H   0  0  0  0  0  0  0  0  0  0  0  0
    1.8986   -2.1706   -2.7710 H   0  0  0  0  0  0  0  0  0  0  0  0
   -0.3457   -2.8875   -0.5462 H   0  0  0  0  0  0  0  0  0  0  0  0
    0.6169   -2.1985    0.7799 H   0  0  0  0  0  0  0  0  0  0  0  0
    1.3851   -3.1748   -0.4558 H   0  0  0  0  0  0  0  0  0  0  0  0
    0.0382    0.8380   -1.3777 H   0  0  0  0  0  0  0  0  0  0  0  0
   -1.7246   -0.1022   -2.6167 H   0  0  0  0  0  0  0  0  0  0  0  0
   -1.7935   -1.6009   -1.6435 H   0  0  0  0  0  0  0  0  0  0  0  0
   -1.9577    1.1884    2.5259 H   0  0  0  0  0  0  0  0  0  0  0  0
   -4.4663    0.0229   -1.6455 H   0  0  0  0  0  0  0  0  0  0  0  0
   -6.6021    0.8479   -0.5525 H   0  0  0  0  0  0  0  0  0  0  0  0
   -7.6958    1.8121    1.4377 H   0  0  0  0  0  0  0  0  0  0  0  0
    5.9126   -1.4068   -0.4166 H   0  0  0  0  0  0  0  0  0  0  0  0
    7.6128    0.0747    0.6006 H   0  0  0  0  0  0  0  0  0  0  0  0
    6.9302    2.2135    1.6587 H   0  0  0  0  0  0  0  0  0  0  0  0
    4.5381    2.8699    1.7030 H   0  0  0  0  0  0  0  0  0  0  0  0
    2.8272    1.4078    0.6989 H   0  0  0  0  0  0  0  0  0  0  0  0
  1  2  1  0
  2  3  1  0
  2  4  1  0
  4  5  1  0
  5  6  1  0
  6  7  2  0
  7  8  1  0
  7  9  1  0
  9 10  2  0
 10 11  1  0
 11 12  2  0
 11 13  1  0
 13 14  2  0
 14 15  1  0
 15 16  2  0
 15 17  1  0
  2 18  1  0
 18 19  1  0
 19 20  2  0
 19 21  1  0
 21 22  2  0
 22 23  1  0
 23 24  2  0
 24 25  1  0
 25 26  2  0
  8  4  1  0
 12  6  1  0
 17 10  1  0
 26 21  1  0
  1 27  1  0
  1 28  1  0
  1 29  1  0
  3 30  1  0
  3 31  1  0
  3 32  1  0
  4 33  1  0
  5 34  1  0
  5 35  1  0
  9 36  1  0
 12 37  1  0
 13 38  1  0
 14 39  1  0
 22 40  1  0
 23 41  1  0
 24 42  1  0
 25 43  1  0
 26 44  1  0
M  END
>  <Name>  (161) 
Felamidin

>  <PubChem ID>  (161) 
1042895

>  <CDB ID>  (161) 
CDB0161

>  <Smiles>  (161) 
CC(C)(C1CC2=C(O1)C=C3C(=C2)C=CC(=O)O3)OC(=O)C4=CC=CC=C4

>  <Chemical class>  (161) 
7-Oxygenated Coumarins

>  <Natural source>  (161) 
Ferulago meoides

>  <Molecular Formula>  (161) 
C21H18O5

>  <InChI-Key>  (161) 
VIPXLQMQEIDXMH-GOSISDBHSA-N

>  <Total Molweight>  (161) 
350.369

>  <cLogP>  (161) 
3.7895

>  <cLogS>  (161) 
-4.675

>  <H-Acceptors>  (161) 
5

>  <H-Donors>  (161) 
0

>  <Rotatable Bonds>  (161) 
4

>  <Polar Surface Area>  (161) 
61.83

$$$$
CDB0162
     RDKit          3D

 44 46  0  0  0  0  0  0  0  0999 V2000
   -5.2419   -0.4628    2.6690 C   0  0  0  0  0  0  0  0  0  0  0  0
   -4.1500   -0.6743    1.6687 C   0  0  0  0  0  0  0  0  0  0  0  0
   -3.4609   -1.8077    1.4208 C   0  0  0  0  0  0  0  0  0  0  0  0
   -3.6677   -3.1258    2.1107 C   0  0  0  0  0  0  0  0  0  0  0  0
   -2.3723   -1.8456    0.3893 C   0  0  0  0  0  0  0  0  0  0  0  0
   -1.6449   -2.8148    0.2300 O   0  0  0  0  0  0  0  0  0  0  0  0
   -2.3267   -0.6998   -0.3303 O   0  0  0  0  0  0  0  0  0  0  0  0
   -1.3162   -0.5069   -1.3672 C   0  0  0  0  0  0  0  0  0  0  0  0
   -1.4877   -1.5594   -2.4740 C   0  0  0  0  0  0  0  0  0  0  0  0
   -1.6682    0.8727   -1.9557 C   0  0  0  0  0  0  0  0  0  0  0  0
    0.1122   -0.5121   -0.7529 C   0  0  0  0  0  0  0  0  0  0  0  0
    1.2612   -0.4215   -1.7766 C   0  0  0  0  0  0  0  0  0  0  0  0
    2.2252    0.3847   -0.9920 C   0  0  0  0  0  0  0  0  0  0  0  0
    1.5728    0.9505    0.0938 C   0  0  0  0  0  0  0  0  0  0  0  0
    0.2542    0.5955    0.1899 O   0  0  0  0  0  0  0  0  0  0  0  0
    2.2106    1.8043    0.9667 C   0  0  0  0  0  0  0  0  0  0  0  0
    3.5565    2.0682    0.7192 C   0  0  0  0  0  0  0  0  0  0  0  0
    4.2417    1.5057   -0.3697 C   0  0  0  0  0  0  0  0  0  0  0  0
    3.5620    0.6526   -1.2460 C   0  0  0  0  0  0  0  0  0  0  0  0
    5.6452    1.8354   -0.5593 C   0  0  0  0  0  0  0  0  0  0  0  0
    6.2514    2.6599    0.3001 C   0  0  0  0  0  0  0  0  0  0  0  0
    5.5537    3.2623    1.4495 C   0  0  0  0  0  0  0  0  0  0  0  0
    6.1463    4.0153    2.2139 O   0  0  0  0  0  0  0  0  0  0  0  0
    4.2150    2.9370    1.6143 O   0  0  0  0  0  0  0  0  0  0  0  0
   -4.9786    0.3736    3.3246 H   0  0  0  0  0  0  0  0  0  0  0  0
   -6.1717   -0.2077    2.1511 H   0  0  0  0  0  0  0  0  0  0  0  0
   -5.4343   -1.3285    3.3045 H   0  0  0  0  0  0  0  0  0  0  0  0
   -3.9111    0.2288    1.1075 H   0  0  0  0  0  0  0  0  0  0  0  0
   -3.8406   -3.9183    1.3740 H   0  0  0  0  0  0  0  0  0  0  0  0
   -4.5260   -3.1339    2.7854 H   0  0  0  0  0  0  0  0  0  0  0  0
   -2.7827   -3.3884    2.7001 H   0  0  0  0  0  0  0  0  0  0  0  0
   -1.1375   -2.5458   -2.1552 H   0  0  0  0  0  0  0  0  0  0  0  0
   -0.9288   -1.2928   -3.3771 H   0  0  0  0  0  0  0  0  0  0  0  0
   -2.5438   -1.6706   -2.7448 H   0  0  0  0  0  0  0  0  0  0  0  0
   -2.6920    0.8719   -2.3494 H   0  0  0  0  0  0  0  0  0  0  0  0
   -1.6444    1.6523   -1.1860 H   0  0  0  0  0  0  0  0  0  0  0  0
   -0.9962    1.1656   -2.7673 H   0  0  0  0  0  0  0  0  0  0  0  0
    0.2619   -1.4177   -0.1519 H   0  0  0  0  0  0  0  0  0  0  0  0
    0.9876    0.1188   -2.6867 H   0  0  0  0  0  0  0  0  0  0  0  0
    1.6422   -1.4129   -2.0379 H   0  0  0  0  0  0  0  0  0  0  0  0
    1.6893    2.2450    1.8075 H   0  0  0  0  0  0  0  0  0  0  0  0
    4.0577    0.2133   -2.1060 H   0  0  0  0  0  0  0  0  0  0  0  0
    6.1822    1.4053   -1.3975 H   0  0  0  0  0  0  0  0  0  0  0  0
    7.2953    2.9285    0.1926 H   0  0  0  0  0  0  0  0  0  0  0  0
  1  2  1  0
  2  3  2  3
  3  4  1  0
  3  5  1  0
  5  6  2  0
  5  7  1  0
  7  8  1  0
  8  9  1  0
  8 10  1  0
  8 11  1  0
 11 12  1  0
 12 13  1  0
 13 14  2  0
 14 15  1  0
 14 16  1  0
 16 17  2  0
 17 18  1  0
 18 19  2  0
 18 20  1  0
 20 21  2  0
 21 22  1  0
 22 23  2  0
 22 24  1  0
 15 11  1  0
 19 13  1  0
 24 17  1  0
  1 25  1  0
  1 26  1  0
  1 27  1  0
  2 28  1  0
  4 29  1  0
  4 30  1  0
  4 31  1  0
  9 32  1  0
  9 33  1  0
  9 34  1  0
 10 35  1  0
 10 36  1  0
 10 37  1  0
 11 38  1  0
 12 39  1  0
 12 40  1  0
 16 41  1  0
 19 42  1  0
 20 43  1  0
 21 44  1  0
M  END
>  <Name>  (162) 
Sprengelianin

>  <PubChem ID>  (162) 
6183350

>  <CDB ID>  (162) 
CDB0162

>  <Smiles>  (162) 
CC=C(C)C(=O)OC(C)(C)C1CC2=C(O1)C=C3C(=C2)C=CC(=O)O3

>  <Chemical class>  (162) 
7-Oxygenated Coumarins

>  <Natural source>  (162) 
Heracleum sprengelianum

>  <Molecular Formula>  (162) 
C19H20O5

>  <InChI-Key>  (162) 
HHNCJFKRMZDTHW-MRXNPFEDSA-N

>  <Total Molweight>  (162) 
328.363

>  <cLogP>  (162) 
3.6087

>  <cLogS>  (162) 
-3.941

>  <H-Acceptors>  (162) 
5

>  <H-Donors>  (162) 
0

>  <Rotatable Bonds>  (162) 
4

>  <Polar Surface Area>  (162) 
61.83

$$$$
CDB0163
     RDKit          3D

 30 32  0  0  0  0  0  0  0  0999 V2000
   -3.6674    0.7186   -1.4305 C   0  0  0  0  0  0  0  0  0  0  0  0
   -2.9240    0.8009   -0.0922 C   0  0  0  0  0  0  0  0  0  0  0  0
   -3.9419    0.9173    1.0451 C   0  0  0  0  0  0  0  0  0  0  0  0
   -1.9882   -0.4047    0.1008 C   0  0  0  0  0  0  0  0  0  0  0  0
   -1.0051   -0.2268    1.2455 C   0  0  0  0  0  0  0  0  0  0  0  0
   -1.2322   -0.0550    2.4287 O   0  0  0  0  0  0  0  0  0  0  0  0
    0.3176   -0.3114    0.6886 C   0  0  0  0  0  0  0  0  0  0  0  0
    0.1447   -0.5149   -0.6643 C   0  0  0  0  0  0  0  0  0  0  0  0
   -1.1544   -0.5764   -1.0871 O   0  0  0  0  0  0  0  0  0  0  0  0
    1.2355   -0.6391   -1.4979 C   0  0  0  0  0  0  0  0  0  0  0  0
    2.5002   -0.5504   -0.9091 C   0  0  0  0  0  0  0  0  0  0  0  0
    2.6779   -0.3433    0.4709 C   0  0  0  0  0  0  0  0  0  0  0  0
    1.5583   -0.2198    1.2958 C   0  0  0  0  0  0  0  0  0  0  0  0
    4.0302   -0.2635    0.9985 C   0  0  0  0  0  0  0  0  0  0  0  0
    5.0710   -0.3874    0.1692 C   0  0  0  0  0  0  0  0  0  0  0  0
    4.9127   -0.6047   -1.2796 C   0  0  0  0  0  0  0  0  0  0  0  0
    5.8928   -0.7132   -2.0068 O   0  0  0  0  0  0  0  0  0  0  0  0
    3.6141   -0.6781   -1.7653 O   0  0  0  0  0  0  0  0  0  0  0  0
   -4.2549   -0.2033   -1.4999 H   0  0  0  0  0  0  0  0  0  0  0  0
   -4.3518    1.5658   -1.5481 H   0  0  0  0  0  0  0  0  0  0  0  0
   -2.9717    0.7442   -2.2753 H   0  0  0  0  0  0  0  0  0  0  0  0
   -2.3236    1.7201   -0.1099 H   0  0  0  0  0  0  0  0  0  0  0  0
   -4.6294    1.7514    0.8670 H   0  0  0  0  0  0  0  0  0  0  0  0
   -3.4531    1.1039    2.0052 H   0  0  0  0  0  0  0  0  0  0  0  0
   -4.5385    0.0034    1.1377 H   0  0  0  0  0  0  0  0  0  0  0  0
   -2.5432   -1.3390    0.2449 H   0  0  0  0  0  0  0  0  0  0  0  0
    1.1180   -0.7984   -2.5637 H   0  0  0  0  0  0  0  0  0  0  0  0
    1.6367   -0.0588    2.3661 H   0  0  0  0  0  0  0  0  0  0  0  0
    4.1769   -0.1040    2.0615 H   0  0  0  0  0  0  0  0  0  0  0  0
    6.0929   -0.3334    0.5254 H   0  0  0  0  0  0  0  0  0  0  0  0
  1  2  1  0
  2  3  1  0
  2  4  1  0
  4  5  1  0
  5  6  2  0
  5  7  1  0
  7  8  1  0
  8  9  1  0
  8 10  2  0
 10 11  1  0
 11 12  2  0
 12 13  1  0
 12 14  1  0
 14 15  2  0
 15 16  1  0
 16 17  2  0
 16 18  1  0
  9  4  1  0
 13  7  2  0
 18 11  1  0
  1 19  1  0
  1 20  1  0
  1 21  1  0
  2 22  1  0
  3 23  1  0
  3 24  1  0
  3 25  1  0
  4 26  1  0
 10 27  1  0
 13 28  1  0
 14 29  1  0
 15 30  1  0
M  END
>  <Name>  (163) 
Oreoselone

>  <PubChem ID>  (163) 
2841563

>  <CDB ID>  (163) 
CDB0163

>  <Smiles>  (163) 
CC(C)C1C(=O)C2=C(O1)C=C3C(=C2)C=CC(=O)O3

>  <Chemical class>  (163) 
7-Oxygenated Coumarins

>  <Natural source>  (163) 


>  <Molecular Formula>  (163) 
C14H12O4

>  <InChI-Key>  (163) 
PYTXVUBIYABGPG-CQSZACIVSA-N

>  <Total Molweight>  (163) 
244.245

>  <cLogP>  (163) 
2.1698

>  <cLogS>  (163) 
-3.726

>  <H-Acceptors>  (163) 
4

>  <H-Donors>  (163) 
0

>  <Rotatable Bonds>  (163) 
1

>  <Polar Surface Area>  (163) 
52.6

$$$$
CDB0164
     RDKit          3D

 43 45  0  0  0  0  0  0  0  0999 V2000
   -0.0155    4.3550    0.7833 C   0  0  0  0  0  0  0  0  0  0  0  0
   -0.1144    3.3470   -0.3207 C   0  0  0  0  0  0  0  0  0  0  0  0
   -0.4413    3.6067   -1.4683 O   0  0  0  0  0  0  0  0  0  0  0  0
    0.2132    2.1104    0.1438 O   0  0  0  0  0  0  0  0  0  0  0  0
    0.2628    1.0977   -0.8532 C   0  0  0  0  0  0  0  0  0  0  0  0
   -0.9916    0.1962   -1.0034 C   0  0  0  0  0  0  0  0  0  0  0  0
   -0.5161   -1.1707   -1.2676 O   0  0  0  0  0  0  0  0  0  0  0  0
    0.7715   -1.1899   -0.8045 C   0  0  0  0  0  0  0  0  0  0  0  0
    1.2749    0.0639   -0.4940 C   0  0  0  0  0  0  0  0  0  0  0  0
    2.5668    0.2160   -0.0069 C   0  0  0  0  0  0  0  0  0  0  0  0
    3.3446   -0.9320    0.1766 C   0  0  0  0  0  0  0  0  0  0  0  0
    4.7043   -0.8610    0.6869 C   0  0  0  0  0  0  0  0  0  0  0  0
    5.4104   -1.9850    0.8418 C   0  0  0  0  0  0  0  0  0  0  0  0
    4.8682   -3.3155    0.5148 C   0  0  0  0  0  0  0  0  0  0  0  0
    5.5473   -4.3229    0.6755 O   0  0  0  0  0  0  0  0  0  0  0  0
    3.5707   -3.3628    0.0248 O   0  0  0  0  0  0  0  0  0  0  0  0
    2.8089   -2.1884   -0.1467 C   0  0  0  0  0  0  0  0  0  0  0  0
    1.5167   -2.3382   -0.6465 C   0  0  0  0  0  0  0  0  0  0  0  0
   -2.0545    0.1410    0.1436 C   0  0  0  0  0  0  0  0  0  0  0  0
   -1.4569   -0.3197    1.4853 C   0  0  0  0  0  0  0  0  0  0  0  0
   -2.7873    1.4712    0.3762 C   0  0  0  0  0  0  0  0  0  0  0  0
   -3.0523   -0.8972   -0.1478 O   0  0  0  0  0  0  0  0  0  0  0  0
   -3.8388   -0.8121   -1.2516 C   0  0  0  0  0  0  0  0  0  0  0  0
   -3.8492    0.1081   -2.0549 O   0  0  0  0  0  0  0  0  0  0  0  0
   -4.7175   -2.0217   -1.3432 C   0  0  0  0  0  0  0  0  0  0  0  0
    1.0191    4.4236    1.1286 H   0  0  0  0  0  0  0  0  0  0  0  0
   -0.3256    5.3344    0.4079 H   0  0  0  0  0  0  0  0  0  0  0  0
   -0.6773    4.0746    1.6063 H   0  0  0  0  0  0  0  0  0  0  0  0
    0.5642    1.4949   -1.8327 H   0  0  0  0  0  0  0  0  0  0  0  0
   -1.4907    0.5059   -1.9282 H   0  0  0  0  0  0  0  0  0  0  0  0
    2.9567    1.2046    0.2156 H   0  0  0  0  0  0  0  0  0  0  0  0
    5.1282    0.1058    0.9350 H   0  0  0  0  0  0  0  0  0  0  0  0
    6.4259   -1.9732    1.2190 H   0  0  0  0  0  0  0  0  0  0  0  0
    1.1123   -3.3126   -0.8931 H   0  0  0  0  0  0  0  0  0  0  0  0
   -2.2389   -0.3754    2.2529 H   0  0  0  0  0  0  0  0  0  0  0  0
   -1.0429   -1.3311    1.4134 H   0  0  0  0  0  0  0  0  0  0  0  0
   -0.6785    0.3547    1.8520 H   0  0  0  0  0  0  0  0  0  0  0  0
   -3.0188    1.9750   -0.5676 H   0  0  0  0  0  0  0  0  0  0  0  0
   -2.2051    2.1628    0.9891 H   0  0  0  0  0  0  0  0  0  0  0  0
   -3.7418    1.3053    0.8897 H   0  0  0  0  0  0  0  0  0  0  0  0
   -5.3307   -1.9568   -2.2465 H   0  0  0  0  0  0  0  0  0  0  0  0
   -5.3788   -2.0660   -0.4742 H   0  0  0  0  0  0  0  0  0  0  0  0
   -4.1022   -2.9229   -1.4057 H   0  0  0  0  0  0  0  0  0  0  0  0
  1  2  1  0
  2  3  2  0
  2  4  1  0
  4  5  1  0
  5  6  1  0
  6  7  1  0
  7  8  1  0
  8  9  2  0
  9 10  1  0
 10 11  2  0
 11 12  1  0
 12 13  2  0
 13 14  1  0
 14 15  2  0
 14 16  1  0
 16 17  1  0
 17 18  2  0
  6 19  1  0
 19 20  1  0
 19 21  1  0
 19 22  1  0
 22 23  1  0
 23 24  2  0
 23 25  1  0
  9  5  1  0
 18  8  1  0
 17 11  1  0
  1 26  1  0
  1 27  1  0
  1 28  1  0
  5 29  1  0
  6 30  1  0
 10 31  1  0
 12 32  1  0
 13 33  1  0
 18 34  1  0
 20 35  1  0
 20 36  1  0
 20 37  1  0
 21 38  1  0
 21 39  1  0
 21 40  1  0
 25 41  1  0
 25 42  1  0
 25 43  1  0
M  END
>  <Name>  (164) 
Smyrniorin

>  <PubChem ID>  (164) 
101967026

>  <CDB ID>  (164) 
CDB0164

>  <Smiles>  (164) 
CC(=O)OC1C(OC2=C1C=C3C=CC(=O)OC3=C2)C(C)(C)OC(=O)C

>  <Chemical class>  (164) 
7-Oxygenated Coumarins

>  <Natural source>  (164) 
Smyrniopsis aucheri

>  <Molecular Formula>  (164) 
C18H18O7

>  <InChI-Key>  (164) 
MPSHHPOBEKGMGA-UHFFFAOYSA-N

>  <Total Molweight>  (164) 
346.334

>  <cLogP>  (164) 
2.1043

>  <cLogS>  (164) 
-3.367

>  <H-Acceptors>  (164) 
7

>  <H-Donors>  (164) 
0

>  <Rotatable Bonds>  (164) 
5

>  <Polar Surface Area>  (164) 
88.13

$$$$
CDB0165
     RDKit          3D

 50 52  0  0  0  0  0  0  0  0999 V2000
    5.0170   -2.4367    0.3743 C   0  0  0  0  0  0  0  0  0  0  0  0
    3.7820   -1.9123   -0.2840 C   0  0  0  0  0  0  0  0  0  0  0  0
    2.7945   -1.1884    0.2804 C   0  0  0  0  0  0  0  0  0  0  0  0
    2.7599   -0.7034    1.6976 C   0  0  0  0  0  0  0  0  0  0  0  0
    1.6589   -0.8017   -0.6117 C   0  0  0  0  0  0  0  0  0  0  0  0
    1.7276   -0.7496   -1.8315 O   0  0  0  0  0  0  0  0  0  0  0  0
    0.5690   -0.4983    0.1377 O   0  0  0  0  0  0  0  0  0  0  0  0
   -0.5925   -0.1298   -0.6064 C   0  0  0  0  0  0  0  0  0  0  0  0
   -1.9076   -0.2476    0.2122 C   0  0  0  0  0  0  0  0  0  0  0  0
   -2.0130    0.9762    1.0152 O   0  0  0  0  0  0  0  0  0  0  0  0
   -1.3798    1.9138    0.2428 C   0  0  0  0  0  0  0  0  0  0  0  0
   -0.5780    1.3577   -0.7446 C   0  0  0  0  0  0  0  0  0  0  0  0
    0.1387    2.1616   -1.6207 C   0  0  0  0  0  0  0  0  0  0  0  0
    0.0324    3.5490   -1.4815 C   0  0  0  0  0  0  0  0  0  0  0  0
    0.7519    4.4609   -2.3559 C   0  0  0  0  0  0  0  0  0  0  0  0
    0.6259    5.7798   -2.1816 C   0  0  0  0  0  0  0  0  0  0  0  0
   -0.2217    6.3639   -1.1275 C   0  0  0  0  0  0  0  0  0  0  0  0
   -0.3130    7.5797   -1.0018 O   0  0  0  0  0  0  0  0  0  0  0  0
   -0.8983    5.4782   -0.3004 O   0  0  0  0  0  0  0  0  0  0  0  0
   -0.7784    4.0827   -0.4668 C   0  0  0  0  0  0  0  0  0  0  0  0
   -1.4942    3.2753    0.4156 C   0  0  0  0  0  0  0  0  0  0  0  0
   -2.1842   -1.4942    1.1041 C   0  0  0  0  0  0  0  0  0  0  0  0
   -1.0868   -1.8503    2.1151 C   0  0  0  0  0  0  0  0  0  0  0  0
   -3.4621   -1.2137    1.9356 C   0  0  0  0  0  0  0  0  0  0  0  0
   -2.5798   -2.6568    0.3123 O   0  0  0  0  0  0  0  0  0  0  0  0
   -1.7043   -3.3349   -0.4665 C   0  0  0  0  0  0  0  0  0  0  0  0
   -0.5291   -3.0550   -0.6322 O   0  0  0  0  0  0  0  0  0  0  0  0
   -2.3943   -4.4928   -1.1202 C   0  0  0  0  0  0  0  0  0  0  0  0
    5.1045   -3.5110    0.1823 H   0  0  0  0  0  0  0  0  0  0  0  0
    5.0261   -2.2983    1.4574 H   0  0  0  0  0  0  0  0  0  0  0  0
    5.8993   -1.9435   -0.0447 H   0  0  0  0  0  0  0  0  0  0  0  0
    3.6970   -2.1814   -1.3382 H   0  0  0  0  0  0  0  0  0  0  0  0
    2.4392    0.3435    1.7408 H   0  0  0  0  0  0  0  0  0  0  0  0
    2.0657   -1.3049    2.2922 H   0  0  0  0  0  0  0  0  0  0  0  0
    3.7392   -0.7421    2.1816 H   0  0  0  0  0  0  0  0  0  0  0  0
   -0.6837   -0.6550   -1.5635 H   0  0  0  0  0  0  0  0  0  0  0  0
   -2.7390   -0.1924   -0.5114 H   0  0  0  0  0  0  0  0  0  0  0  0
    0.7747    1.7143   -2.3802 H   0  0  0  0  0  0  0  0  0  0  0  0
    1.3837    4.0549   -3.1386 H   0  0  0  0  0  0  0  0  0  0  0  0
    1.1463    6.4900   -2.8125 H   0  0  0  0  0  0  0  0  0  0  0  0
   -2.1153    3.6973    1.1961 H   0  0  0  0  0  0  0  0  0  0  0  0
   -1.4298   -2.6413    2.7931 H   0  0  0  0  0  0  0  0  0  0  0  0
   -0.8029   -0.9830    2.7201 H   0  0  0  0  0  0  0  0  0  0  0  0
   -0.1877   -2.2519    1.6452 H   0  0  0  0  0  0  0  0  0  0  0  0
   -3.7813   -2.1136    2.4757 H   0  0  0  0  0  0  0  0  0  0  0  0
   -4.2987   -0.9391    1.2821 H   0  0  0  0  0  0  0  0  0  0  0  0
   -3.3156   -0.4139    2.6688 H   0  0  0  0  0  0  0  0  0  0  0  0
   -2.7962   -5.1641   -0.3570 H   0  0  0  0  0  0  0  0  0  0  0  0
   -1.6736   -5.0489   -1.7266 H   0  0  0  0  0  0  0  0  0  0  0  0
   -3.1922   -4.1286   -1.7721 H   0  0  0  0  0  0  0  0  0  0  0  0
  1  2  1  0
  2  3  2  3
  3  4  1  0
  3  5  1  0
  5  6  2  0
  5  7  1  0
  7  8  1  0
  8  9  1  0
  9 10  1  0
 10 11  1  0
 11 12  2  0
 12 13  1  0
 13 14  2  0
 14 15  1  0
 15 16  2  0
 16 17  1  0
 17 18  2  0
 17 19  1  0
 19 20  1  0
 20 21  2  0
  9 22  1  0
 22 23  1  0
 22 24  1  0
 22 25  1  0
 25 26  1  0
 26 27  2  0
 26 28  1  0
 12  8  1  0
 21 11  1  0
 20 14  1  0
  1 29  1  0
  1 30  1  0
  1 31  1  0
  2 32  1  0
  4 33  1  0
  4 34  1  0
  4 35  1  0
  8 36  1  0
  9 37  1  0
 13 38  1  0
 15 39  1  0
 16 40  1  0
 21 41  1  0
 23 42  1  0
 23 43  1  0
 23 44  1  0
 24 45  1  0
 24 46  1  0
 24 47  1  0
 28 48  1  0
 28 49  1  0
 28 50  1  0
M  END
>  <Name>  (165) 
Smyrnioridin

>  <PubChem ID>  (165) 
101306771

>  <CDB ID>  (165) 
CDB0165

>  <Smiles>  (165) 
CC=C(C)C(=O)OC1C(OC2=C1C=C3C=CC(=O)OC3=C2)C(C)(C)OC(=O)C

>  <Chemical class>  (165) 
7-Oxygenated Coumarins

>  <Natural source>  (165) 
Smyrniopsis aucheri

>  <Molecular Formula>  (165) 
C21H22O7

>  <InChI-Key>  (165) 
JSIFZCDOTCKEGQ-UHFFFAOYSA-N

>  <Total Molweight>  (165) 
386.399

>  <cLogP>  (165) 
3.3673

>  <cLogS>  (165) 
-3.803

>  <H-Acceptors>  (165) 
7

>  <H-Donors>  (165) 
0

>  <Rotatable Bonds>  (165) 
6

>  <Polar Surface Area>  (165) 
88.13

$$$$
CDB0166
     RDKit          3D

 54 57  0  0  0  0  0  0  0  0999 V2000
   -0.4467   -2.8243    1.2819 C   0  0  0  0  0  0  0  0  0  0  0  0
   -0.1805   -1.7712    0.1851 C   0  0  0  0  0  0  0  0  0  0  0  0
    0.6521   -2.4740   -0.9052 C   0  0  0  0  0  0  0  0  0  0  0  0
    0.5714   -0.5434    0.7954 C   0  0  0  0  0  0  0  0  0  0  0  0
    0.9192    0.6413   -0.1448 C   0  0  0  0  0  0  0  0  0  0  0  0
    2.3805    0.4324   -0.2883 C   0  0  0  0  0  0  0  0  0  0  0  0
    2.8113   -0.4646    0.6780 C   0  0  0  0  0  0  0  0  0  0  0  0
    1.8044   -0.9793    1.4515 O   0  0  0  0  0  0  0  0  0  0  0  0
    4.1401   -0.8011    0.8213 C   0  0  0  0  0  0  0  0  0  0  0  0
    5.0407   -0.2072   -0.0616 C   0  0  0  0  0  0  0  0  0  0  0  0
    4.6309    0.6983   -1.0527 C   0  0  0  0  0  0  0  0  0  0  0  0
    3.2771    1.0284   -1.1646 C   0  0  0  0  0  0  0  0  0  0  0  0
    5.6334    1.2721   -1.9355 C   0  0  0  0  0  0  0  0  0  0  0  0
    6.9164    0.9289   -1.7883 C   0  0  0  0  0  0  0  0  0  0  0  0
    7.3711   -0.0189   -0.7559 C   0  0  0  0  0  0  0  0  0  0  0  0
    8.5578   -0.3079   -0.6529 O   0  0  0  0  0  0  0  0  0  0  0  0
    6.4003   -0.5560    0.0778 O   0  0  0  0  0  0  0  0  0  0  0  0
    0.2670    0.6689   -1.3965 O   0  0  0  0  0  0  0  0  0  0  0  0
   -1.4269   -1.4450   -0.4662 O   0  0  0  0  0  0  0  0  0  0  0  0
   -2.3995   -0.7143    0.2844 C   0  0  0  0  0  0  0  0  0  0  0  0
   -3.7571   -0.9695   -0.4060 C   0  0  0  0  0  0  0  0  0  0  0  0
   -4.8520   -0.1262    0.2512 C   0  0  0  0  0  0  0  0  0  0  0  0
   -4.4312    1.3534    0.3012 C   0  0  0  0  0  0  0  0  0  0  0  0
   -3.0156    1.5017    0.8979 C   0  0  0  0  0  0  0  0  0  0  0  0
   -2.0651    0.6720    0.2028 O   0  0  0  0  0  0  0  0  0  0  0  0
   -2.5013    2.9456    0.8223 C   0  0  0  0  0  0  0  0  0  0  0  0
   -3.3890    3.8640    1.4442 O   0  0  0  0  0  0  0  0  0  0  0  0
   -4.4795    1.9274   -1.0122 O   0  0  0  0  0  0  0  0  0  0  0  0
   -5.1008   -0.6065    1.5739 O   0  0  0  0  0  0  0  0  0  0  0  0
   -3.6637   -0.6187   -1.8018 O   0  0  0  0  0  0  0  0  0  0  0  0
   -0.9474   -2.3849    2.1507 H   0  0  0  0  0  0  0  0  0  0  0  0
   -1.1036   -3.6183    0.9085 H   0  0  0  0  0  0  0  0  0  0  0  0
    0.4815   -3.2836    1.6386 H   0  0  0  0  0  0  0  0  0  0  0  0
    0.1034   -3.3318   -1.3135 H   0  0  0  0  0  0  0  0  0  0  0  0
    0.8433   -1.8134   -1.7565 H   0  0  0  0  0  0  0  0  0  0  0  0
    1.6107   -2.8409   -0.5257 H   0  0  0  0  0  0  0  0  0  0  0  0
   -0.0531   -0.1364    1.6015 H   0  0  0  0  0  0  0  0  0  0  0  0
    0.7474    1.5959    0.3670 H   0  0  0  0  0  0  0  0  0  0  0  0
    4.4679   -1.5018    1.5796 H   0  0  0  0  0  0  0  0  0  0  0  0
    2.9190    1.7290   -1.9135 H   0  0  0  0  0  0  0  0  0  0  0  0
    5.3230    1.9714   -2.7042 H   0  0  0  0  0  0  0  0  0  0  0  0
    7.6916    1.3343   -2.4271 H   0  0  0  0  0  0  0  0  0  0  0  0
   -0.6896    0.6440   -1.1936 H   0  0  0  0  0  0  0  0  0  0  0  0
   -2.4299   -1.0388    1.3292 H   0  0  0  0  0  0  0  0  0  0  0  0
   -3.9996   -2.0370   -0.3539 H   0  0  0  0  0  0  0  0  0  0  0  0
   -5.7787   -0.2067   -0.3307 H   0  0  0  0  0  0  0  0  0  0  0  0
   -5.1420    1.9112    0.9215 H   0  0  0  0  0  0  0  0  0  0  0  0
   -3.0384    1.1978    1.9528 H   0  0  0  0  0  0  0  0  0  0  0  0
   -2.3212    3.2586   -0.2128 H   0  0  0  0  0  0  0  0  0  0  0  0
   -1.5330    3.0129    1.3311 H   0  0  0  0  0  0  0  0  0  0  0  0
   -4.0853    4.0609    0.7892 H   0  0  0  0  0  0  0  0  0  0  0  0
   -4.0955    1.2669   -1.6302 H   0  0  0  0  0  0  0  0  0  0  0  0
   -5.8116   -1.2716    1.5113 H   0  0  0  0  0  0  0  0  0  0  0  0
   -2.8240   -1.0238   -2.1078 H   0  0  0  0  0  0  0  0  0  0  0  0
  1  2  1  0
  2  3  1  0
  2  4  1  0
  4  5  1  0
  5  6  1  0
  6  7  2  0
  7  8  1  0
  7  9  1  0
  9 10  2  0
 10 11  1  0
 11 12  2  0
 11 13  1  0
 13 14  2  0
 14 15  1  0
 15 16  2  0
 15 17  1  0
  5 18  1  0
  2 19  1  0
 19 20  1  0
 20 21  1  0
 21 22  1  0
 22 23  1  0
 23 24  1  0
 24 25  1  0
 24 26  1  0
 26 27  1  0
 23 28  1  0
 22 29  1  0
 21 30  1  0
  8  4  1  0
 12  6  1  0
 17 10  1  0
 25 20  1  0
  1 31  1  0
  1 32  1  0
  1 33  1  0
  3 34  1  0
  3 35  1  0
  3 36  1  0
  4 37  1  0
  5 38  1  0
  9 39  1  0
 12 40  1  0
 13 41  1  0
 14 42  1  0
 18 43  1  0
 20 44  1  0
 21 45  1  0
 22 46  1  0
 23 47  1  0
 24 48  1  0
 26 49  1  0
 26 50  1  0
 27 51  1  0
 28 52  1  0
 29 53  1  0
 30 54  1  0
M  END
>  <Name>  (166) 
Decuroside V

>  <PubChem ID>  (166) 
154572709

>  <CDB ID>  (166) 
CDB0166

>  <Smiles>  (166) 
CC(C)(C1C(C2=C(O1)C=C3C(=C2)C=CC(=O)O3)O)OC4C(C(C(C(O4)CO)O)O)O

>  <Chemical class>  (166) 
7-Oxygenated Coumarins

>  <Natural source>  (166) 
Peucedanum decursivum

>  <Molecular Formula>  (166) 
C20H24O10

>  <InChI-Key>  (166) 
KLPNFWKZLQAVTH-UHFFFAOYSA-N

>  <Total Molweight>  (166) 
424.401

>  <cLogP>  (166) 
-0.702

>  <cLogS>  (166) 
-2.247

>  <H-Acceptors>  (166) 
10

>  <H-Donors>  (166) 
5

>  <Rotatable Bonds>  (166) 
4

>  <Polar Surface Area>  (166) 
155.14

$$$$
CDB0167
     RDKit          3D

 33 35  0  0  0  0  0  0  0  0999 V2000
   -3.9243    0.9767    0.4579 C   0  0  0  0  0  0  0  0  0  0  0  0
   -3.0342   -0.2486    0.2353 C   0  0  0  0  0  0  0  0  0  0  0  0
   -3.5979   -1.4422    1.0153 C   0  0  0  0  0  0  0  0  0  0  0  0
   -1.5692    0.0451    0.6278 C   0  0  0  0  0  0  0  0  0  0  0  0
   -0.8700    1.1800   -0.1694 C   0  0  0  0  0  0  0  0  0  0  0  0
    0.5188    0.6580   -0.1303 C   0  0  0  0  0  0  0  0  0  0  0  0
    0.4908   -0.6894    0.2071 C   0  0  0  0  0  0  0  0  0  0  0  0
   -0.7701   -1.1688    0.4538 O   0  0  0  0  0  0  0  0  0  0  0  0
    1.6344   -1.4562    0.2535 C   0  0  0  0  0  0  0  0  0  0  0  0
    2.8354   -0.8134   -0.0433 C   0  0  0  0  0  0  0  0  0  0  0  0
    2.8930    0.5465   -0.3885 C   0  0  0  0  0  0  0  0  0  0  0  0
    1.7126    1.2950   -0.4392 C   0  0  0  0  0  0  0  0  0  0  0  0
    4.1853    1.1360   -0.6991 C   0  0  0  0  0  0  0  0  0  0  0  0
    5.2862    0.3805   -0.6431 C   0  0  0  0  0  0  0  0  0  0  0  0
    5.2525   -1.0457   -0.2748 C   0  0  0  0  0  0  0  0  0  0  0  0
    6.2860   -1.7029   -0.2276 O   0  0  0  0  0  0  0  0  0  0  0  0
    4.0098   -1.5930    0.0117 O   0  0  0  0  0  0  0  0  0  0  0  0
   -1.2237    1.3144   -1.5379 O   0  0  0  0  0  0  0  0  0  0  0  0
   -3.0911   -0.5724   -1.1633 O   0  0  0  0  0  0  0  0  0  0  0  0
   -3.9192    1.2910    1.5067 H   0  0  0  0  0  0  0  0  0  0  0  0
   -3.6066    1.8234   -0.1597 H   0  0  0  0  0  0  0  0  0  0  0  0
   -4.9592    0.7627    0.1664 H   0  0  0  0  0  0  0  0  0  0  0  0
   -4.6332   -1.6456    0.7179 H   0  0  0  0  0  0  0  0  0  0  0  0
   -3.5773   -1.2612    2.0949 H   0  0  0  0  0  0  0  0  0  0  0  0
   -3.0376   -2.3600    0.8058 H   0  0  0  0  0  0  0  0  0  0  0  0
   -1.5223    0.2794    1.7024 H   0  0  0  0  0  0  0  0  0  0  0  0
   -0.9829    2.1462    0.3309 H   0  0  0  0  0  0  0  0  0  0  0  0
    1.6020   -2.5081    0.5093 H   0  0  0  0  0  0  0  0  0  0  0  0
    1.7128    2.3403   -0.7330 H   0  0  0  0  0  0  0  0  0  0  0  0
    4.2365    2.1833   -0.9758 H   0  0  0  0  0  0  0  0  0  0  0  0
    6.2660    0.7834   -0.8689 H   0  0  0  0  0  0  0  0  0  0  0  0
   -2.0190    0.7678   -1.7052 H   0  0  0  0  0  0  0  0  0  0  0  0
   -2.5844   -1.4020   -1.2793 H   0  0  0  0  0  0  0  0  0  0  0  0
  1  2  1  0
  2  3  1  0
  2  4  1  0
  4  5  1  0
  5  6  1  0
  6  7  2  0
  7  8  1  0
  7  9  1  0
  9 10  2  0
 10 11  1  0
 11 12  2  0
 11 13  1  0
 13 14  2  0
 14 15  1  0
 15 16  2  0
 15 17  1  0
  5 18  1  0
  2 19  1  0
  8  4  1  0
 12  6  1  0
 17 10  1  0
  1 20  1  0
  1 21  1  0
  1 22  1  0
  3 23  1  0
  3 24  1  0
  3 25  1  0
  4 26  1  0
  5 27  1  0
  9 28  1  0
 12 29  1  0
 13 30  1  0
 14 31  1  0
 18 32  1  0
 19 33  1  0
M  END
>  <Name>  (167) 
Xanthoarnol

>  <PubChem ID>  (167) 
11482406

>  <CDB ID>  (167) 
CDB0167

>  <Smiles>  (167) 
CC(C)(C1C(C2=C(O1)C=C3C(=C2)C=CC(=O)O3)O)O

>  <Chemical class>  (167) 
7-Oxygenated Coumarins

>  <Natural source>  (167) 
Xanthoxylum arnottianum

>  <Molecular Formula>  (167) 
C14H14O5

>  <InChI-Key>  (167) 
AIQSGHBQRRSBCN-UHFFFAOYSA-N

>  <Total Molweight>  (167) 
262.26

>  <cLogP>  (167) 
1.1351

>  <cLogS>  (167) 
-2.547

>  <H-Acceptors>  (167) 
5

>  <H-Donors>  (167) 
2

>  <Rotatable Bonds>  (167) 
1

>  <Polar Surface Area>  (167) 
75.99

$$$$
CDB0168
     RDKit          3D

 33 35  0  0  0  0  0  0  0  0999 V2000
   -4.0457   -0.2066   -0.3444 C   0  0  0  0  0  0  0  0  0  0  0  0
   -2.9279    0.1217    0.6555 C   0  0  0  0  0  0  0  0  0  0  0  0
   -3.4072    1.2316    1.6042 C   0  0  0  0  0  0  0  0  0  0  0  0
   -2.7072   -1.0628    1.4440 O   0  0  0  0  0  0  0  0  0  0  0  0
   -1.6056    0.5386   -0.0789 C   0  0  2  0  0  0  0  0  0  0  0  0
   -1.8800    1.6656   -0.9265 O   0  0  0  0  0  0  0  0  0  0  0  0
   -0.9973   -0.6114   -0.9221 C   0  0  0  0  0  0  0  0  0  0  0  0
    0.4440   -0.3941   -0.6398 C   0  0  0  0  0  0  0  0  0  0  0  0
    0.5754    0.4817    0.4271 C   0  0  0  0  0  0  0  0  0  0  0  0
    1.8059    0.8198    0.9466 C   0  0  0  0  0  0  0  0  0  0  0  0
    2.9244    0.2463    0.3443 C   0  0  0  0  0  0  0  0  0  0  0  0
    4.1859    0.5958    0.8695 O   0  0  0  0  0  0  0  0  0  0  0  0
    5.3573    0.0733    0.3400 C   0  0  0  0  0  0  0  0  0  0  0  0
    6.4642    0.3651    0.7777 O   0  0  0  0  0  0  0  0  0  0  0  0
    5.2206   -0.8617   -0.7906 C   0  0  0  0  0  0  0  0  0  0  0  0
    4.0348   -1.2040   -1.3032 C   0  0  0  0  0  0  0  0  0  0  0  0
    2.8187   -0.6430   -0.7369 C   0  0  0  0  0  0  0  0  0  0  0  0
    1.5543   -0.9743   -1.2356 C   0  0  0  0  0  0  0  0  0  0  0  0
   -0.6158    0.9586    0.9024 O   0  0  0  0  0  0  0  0  0  0  0  0
   -4.9522   -0.5316    0.1797 H   0  0  0  0  0  0  0  0  0  0  0  0
   -4.3039    0.6544   -0.9688 H   0  0  0  0  0  0  0  0  0  0  0  0
   -3.7601   -1.0381   -0.9978 H   0  0  0  0  0  0  0  0  0  0  0  0
   -3.5866    2.1722    1.0740 H   0  0  0  0  0  0  0  0  0  0  0  0
   -4.3378    0.9414    2.1061 H   0  0  0  0  0  0  0  0  0  0  0  0
   -2.6779    1.4118    2.4016 H   0  0  0  0  0  0  0  0  0  0  0  0
   -3.4834   -1.1904    2.0165 H   0  0  0  0  0  0  0  0  0  0  0  0
   -1.0306    1.8862   -1.3449 H   0  0  0  0  0  0  0  0  0  0  0  0
   -1.2806   -1.6046   -0.5609 H   0  0  0  0  0  0  0  0  0  0  0  0
   -1.2298   -0.5153   -1.9867 H   0  0  0  0  0  0  0  0  0  0  0  0
    1.8976    1.5012    1.7838 H   0  0  0  0  0  0  0  0  0  0  0  0
    6.1482   -1.2588   -1.1845 H   0  0  0  0  0  0  0  0  0  0  0  0
    3.9624   -1.8957   -2.1352 H   0  0  0  0  0  0  0  0  0  0  0  0
    1.4358   -1.6733   -2.0578 H   0  0  0  0  0  0  0  0  0  0  0  0
  1  2  1  0
  2  3  1  0
  2  4  1  0
  2  5  1  0
  5  6  1  6
  5  7  1  0
  7  8  1  0
  8  9  2  0
  9 10  1  0
 10 11  2  0
 11 12  1  0
 12 13  1  0
 13 14  2  0
 13 15  1  0
 15 16  2  0
 16 17  1  0
 17 18  2  0
  9 19  1  0
 19  5  1  0
 18  8  1  0
 17 11  1  0
  1 20  1  0
  1 21  1  0
  1 22  1  0
  3 23  1  0
  3 24  1  0
  3 25  1  0
  4 26  1  0
  6 27  1  0
  7 28  1  0
  7 29  1  0
 10 30  1  0
 15 31  1  0
 16 32  1  0
 18 33  1  0
M  END
>  <Name>  (168) 
Pterybinthinone

>  <PubChem ID>  (168) 
191959

>  <CDB ID>  (168) 
CDB0168

>  <Smiles>  (168) 
CC(C)(O)[C@]1(O)CC2=C(C=C3OC(=O)C=CC3=C2)O1

>  <Chemical class>  (168) 
7-Oxygenated Coumarins

>  <Natural source>  (168) 
Pteryxia terebinthina var. terebinthina

>  <Molecular Formula>  (168) 
C14H14O5

>  <InChI-Key>  (168) 
UCDAWFNICCNZOP-AWEZNQCLSA-N

>  <Total Molweight>  (168) 
262.26

>  <cLogP>  (168) 
1.4502

>  <cLogS>  (168) 
-2.778

>  <H-Acceptors>  (168) 
5

>  <H-Donors>  (168) 
2

>  <Rotatable Bonds>  (168) 
1

>  <Polar Surface Area>  (168) 
75.99

$$$$
CDB0169
     RDKit          3D

 33 35  0  0  0  0  0  0  0  0999 V2000
   -3.6436   -1.4833    0.1949 C   0  0  0  0  0  0  0  0  0  0  0  0
   -2.8487   -0.1686    0.1448 C   0  0  0  0  0  0  0  0  0  0  0  0
   -2.2366    0.0852    1.5399 C   0  0  0  0  0  0  0  0  0  0  0  0
   -1.8115    1.4407    1.6734 O   0  0  0  0  0  0  0  0  0  0  0  0
   -1.8072   -0.2260   -1.0113 C   0  0  0  0  0  0  0  0  0  0  0  0
   -0.9744    1.0499   -1.2418 C   0  0  0  0  0  0  0  0  0  0  0  0
    0.3554    0.5744   -0.7987 C   0  0  0  0  0  0  0  0  0  0  0  0
    0.3209   -0.7995   -0.6194 C   0  0  0  0  0  0  0  0  0  0  0  0
   -0.9099   -1.3576   -0.8349 O   0  0  0  0  0  0  0  0  0  0  0  0
    1.4387   -1.5169   -0.2522 C   0  0  0  0  0  0  0  0  0  0  0  0
    2.6150   -0.7956   -0.0565 C   0  0  0  0  0  0  0  0  0  0  0  0
    2.6760    0.5963   -0.2265 C   0  0  0  0  0  0  0  0  0  0  0  0
    1.5261    1.2940   -0.6101 C   0  0  0  0  0  0  0  0  0  0  0  0
    3.9419    1.2747    0.0006 C   0  0  0  0  0  0  0  0  0  0  0  0
    5.0150    0.5654    0.3626 C   0  0  0  0  0  0  0  0  0  0  0  0
    4.9764   -0.8962    0.5437 C   0  0  0  0  0  0  0  0  0  0  0  0
    5.9846   -1.5111    0.8723 O   0  0  0  0  0  0  0  0  0  0  0  0
    3.7597   -1.5264    0.3243 O   0  0  0  0  0  0  0  0  0  0  0  0
   -3.7817    0.9058   -0.1061 O   0  0  0  0  0  0  0  0  0  0  0  0
   -3.0106   -2.3339    0.4667 H   0  0  0  0  0  0  0  0  0  0  0  0
   -4.4625   -1.4156    0.9205 H   0  0  0  0  0  0  0  0  0  0  0  0
   -4.1109   -1.6942   -0.7738 H   0  0  0  0  0  0  0  0  0  0  0  0
   -2.9898   -0.0721    2.3204 H   0  0  0  0  0  0  0  0  0  0  0  0
   -1.3939   -0.5779    1.7547 H   0  0  0  0  0  0  0  0  0  0  0  0
   -2.5661    1.9687    1.3436 H   0  0  0  0  0  0  0  0  0  0  0  0
   -2.3665   -0.4102   -1.9396 H   0  0  0  0  0  0  0  0  0  0  0  0
   -0.9355    1.2895   -2.3107 H   0  0  0  0  0  0  0  0  0  0  0  0
   -1.3358    1.9269   -0.7032 H   0  0  0  0  0  0  0  0  0  0  0  0
    1.4022   -2.5906   -0.1160 H   0  0  0  0  0  0  0  0  0  0  0  0
    1.5381    2.3697   -0.7557 H   0  0  0  0  0  0  0  0  0  0  0  0
    3.9956    2.3505   -0.1243 H   0  0  0  0  0  0  0  0  0  0  0  0
    5.9744    1.0350    0.5426 H   0  0  0  0  0  0  0  0  0  0  0  0
   -4.3351    0.6493   -0.8657 H   0  0  0  0  0  0  0  0  0  0  0  0
  1  2  1  0
  2  3  1  0
  3  4  1  0
  2  5  1  0
  5  6  1  0
  6  7  1  0
  7  8  2  0
  8  9  1  0
  8 10  1  0
 10 11  2  0
 11 12  1  0
 12 13  2  0
 12 14  1  0
 14 15  2  0
 15 16  1  0
 16 17  2  0
 16 18  1  0
  2 19  1  0
  9  5  1  0
 13  7  1  0
 18 11  1  0
  1 20  1  0
  1 21  1  0
  1 22  1  0
  3 23  1  0
  3 24  1  0
  4 25  1  0
  5 26  1  0
  6 27  1  0
  6 28  1  0
 10 29  1  0
 13 30  1  0
 14 31  1  0
 15 32  1  0
 19 33  1  0
M  END
>  <Name>  (169) 
Dorsteniol

>  <PubChem ID>  (169) 
71438319

>  <CDB ID>  (169) 
CDB0169

>  <Smiles>  (169) 
CC(CO)(C1CC2=C(O1)C=C3C(=C2)C=CC(=O)O3)O

>  <Chemical class>  (169) 
7-Oxygenated Coumarins

>  <Natural source>  (169) 
Dorstenia contrajerva

>  <Molecular Formula>  (169) 
C14H14O5

>  <InChI-Key>  (169) 
JWWIYTKCAJCERS-UHFFFAOYSA-N

>  <Total Molweight>  (169) 
262.26

>  <cLogP>  (169) 
0.9344

>  <cLogS>  (169) 
-2.588

>  <H-Acceptors>  (169) 
5

>  <H-Donors>  (169) 
2

>  <Rotatable Bonds>  (169) 
2

>  <Polar Surface Area>  (169) 
75.99

$$$$
CDB0170
     RDKit          3D

 20 22  0  0  0  0  0  0  0  0999 V2000
   -2.1400   -1.0214    0.4542 C   0  0  0  0  0  0  0  0  0  0  0  0
   -3.2282   -0.2698    0.2625 C   0  0  0  0  0  0  0  0  0  0  0  0
   -3.1546    1.1291   -0.1928 C   0  0  0  0  0  0  0  0  0  0  0  0
   -4.1746    1.7877   -0.3577 O   0  0  0  0  0  0  0  0  0  0  0  0
   -1.8876    1.6476   -0.4199 O   0  0  0  0  0  0  0  0  0  0  0  0
   -0.7249    0.8687   -0.2228 C   0  0  0  0  0  0  0  0  0  0  0  0
    0.4952    1.4965   -0.4829 C   0  0  0  0  0  0  0  0  0  0  0  0
    1.6241    0.7094   -0.2817 C   0  0  0  0  0  0  0  0  0  0  0  0
    1.5922   -0.6141    0.1473 C   0  0  0  0  0  0  0  0  0  0  0  0
    2.9491   -1.0281    0.2174 C   0  0  0  0  0  0  0  0  0  0  0  0
    3.7068    0.0541   -0.1678 C   0  0  0  0  0  0  0  0  0  0  0  0
    2.9110    1.1119   -0.4721 O   0  0  0  0  0  0  0  0  0  0  0  0
    0.3433   -1.2158    0.4004 C   0  0  0  0  0  0  0  0  0  0  0  0
   -0.8215   -0.4564    0.2097 C   0  0  0  0  0  0  0  0  0  0  0  0
   -2.2223   -2.0493    0.7901 H   0  0  0  0  0  0  0  0  0  0  0  0
   -4.2259   -0.6554    0.4339 H   0  0  0  0  0  0  0  0  0  0  0  0
    0.5652    2.5230   -0.8178 H   0  0  0  0  0  0  0  0  0  0  0  0
    3.3284   -1.9960    0.5122 H   0  0  0  0  0  0  0  0  0  0  0  0
    4.7692    0.2255   -0.2731 H   0  0  0  0  0  0  0  0  0  0  0  0
    0.2951   -2.2473    0.7359 H   0  0  0  0  0  0  0  0  0  0  0  0
  1  2  2  0
  2  3  1  0
  3  4  2  0
  3  5  1  0
  5  6  1  0
  6  7  1  0
  7  8  2  0
  8  9  1  0
  9 10  1  0
 10 11  2  0
 11 12  1  0
  9 13  2  0
 13 14  1  0
 14  1  1  0
 14  6  2  0
 12  8  1  0
  1 15  1  0
  2 16  1  0
  7 17  1  0
 10 18  1  0
 11 19  1  0
 13 20  1  0
M  END
>  <Name>  (170) 
Psoralen (Ficusin)

>  <PubChem ID>  (170) 
6199

>  <CDB ID>  (170) 
CDB0170

>  <Smiles>  (170) 
C1=CC(=O)OC2=CC3=C(C=CO3)C=C21

>  <Chemical class>  (170) 
7-Oxygenated Coumarins

>  <Natural source>  (170) 
Psoralea corylifolia, Ficus carica

>  <Molecular Formula>  (170) 
C11H6O3

>  <InChI-Key>  (170) 
ZCCUUQDIBDJBTK-UHFFFAOYSA-N

>  <Total Molweight>  (170) 
186.166

>  <cLogP>  (170) 
1.949

>  <cLogS>  (170) 
-3.529

>  <H-Acceptors>  (170) 
3

>  <H-Donors>  (170) 
0

>  <Rotatable Bonds>  (170) 
0

>  <Polar Surface Area>  (170) 
39.44

$$$$
CDB0171
     RDKit          3D

 27 29  0  0  0  0  0  0  0  0999 V2000
    4.3180    1.2076   -0.1612 C   0  0  0  0  0  0  0  0  0  0  0  0
    3.5921   -0.1184   -0.1221 C   0  0  0  0  0  0  0  0  0  0  0  0
    4.3102   -1.2562   -0.1687 C   0  0  0  0  0  0  0  0  0  0  0  0
    2.1580   -0.1905   -0.0365 C   0  0  0  0  0  0  0  0  0  0  0  0
    1.2815   -1.2736    0.0124 C   0  0  0  0  0  0  0  0  0  0  0  0
   -0.0457   -0.7773    0.0934 C   0  0  0  0  0  0  0  0  0  0  0  0
    0.0784    0.6020    0.0905 C   0  0  0  0  0  0  0  0  0  0  0  0
    1.3855    0.9543    0.0134 O   0  0  0  0  0  0  0  0  0  0  0  0
   -0.9920    1.4875    0.1574 C   0  0  0  0  0  0  0  0  0  0  0  0
   -2.2538    0.8936    0.2309 C   0  0  0  0  0  0  0  0  0  0  0  0
   -2.4424   -0.4907    0.2377 C   0  0  0  0  0  0  0  0  0  0  0  0
   -1.3322   -1.3465    0.1685 C   0  0  0  0  0  0  0  0  0  0  0  0
   -3.7973   -1.0150    0.3170 C   0  0  0  0  0  0  0  0  0  0  0  0
   -4.8309   -0.1705    0.3816 C   0  0  0  0  0  0  0  0  0  0  0  0
   -4.6600    1.2925    0.3761 C   0  0  0  0  0  0  0  0  0  0  0  0
   -5.6322    2.0360    0.4367 O   0  0  0  0  0  0  0  0  0  0  0  0
   -3.3595    1.7708    0.2999 O   0  0  0  0  0  0  0  0  0  0  0  0
    4.0995    1.7842    0.7440 H   0  0  0  0  0  0  0  0  0  0  0  0
    3.9934    1.7900   -1.0301 H   0  0  0  0  0  0  0  0  0  0  0  0
    5.4049    1.0894   -0.2266 H   0  0  0  0  0  0  0  0  0  0  0  0
    5.3945   -1.2308   -0.2335 H   0  0  0  0  0  0  0  0  0  0  0  0
    3.8669   -2.2453   -0.1455 H   0  0  0  0  0  0  0  0  0  0  0  0
    1.5672   -2.3153   -0.0081 H   0  0  0  0  0  0  0  0  0  0  0  0
   -0.8492    2.5600    0.1523 H   0  0  0  0  0  0  0  0  0  0  0  0
   -1.4505   -2.4258    0.1721 H   0  0  0  0  0  0  0  0  0  0  0  0
   -3.9508   -2.0886    0.3227 H   0  0  0  0  0  0  0  0  0  0  0  0
   -5.8534   -0.5231    0.4416 H   0  0  0  0  0  0  0  0  0  0  0  0
  1  2  1  0
  2  3  2  0
  2  4  1  0
  4  5  2  0
  5  6  1  0
  6  7  1  0
  7  8  1  0
  7  9  2  0
  9 10  1  0
 10 11  2  0
 11 12  1  0
 11 13  1  0
 13 14  2  0
 14 15  1  0
 15 16  2  0
 15 17  1  0
  8  4  1  0
 12  6  2  0
 17 10  1  0
  1 18  1  0
  1 19  1  0
  1 20  1  0
  3 21  1  0
  3 22  1  0
  5 23  1  0
  9 24  1  0
 12 25  1  0
 13 26  1  0
 14 27  1  0
M  END
>  <Name>  (171) 
Arnocoumarin

>  <PubChem ID>  (171) 
44147996

>  <CDB ID>  (171) 
CDB0171

>  <Smiles>  (171) 
CC(=C)C1=CC2=C(O1)C=C3C(=C2)C=CC(=O)O3

>  <Chemical class>  (171) 
7-Oxygenated Coumarins

>  <Natural source>  (171) 
Xanthoxylum arnottianum

>  <Molecular Formula>  (171) 
C14H10O3

>  <InChI-Key>  (171) 
ILVSRSSJBQSUJM-UHFFFAOYSA-N

>  <Total Molweight>  (171) 
226.23

>  <cLogP>  (171) 
2.9263

>  <cLogS>  (171) 
-4.087

>  <H-Acceptors>  (171) 
3

>  <H-Donors>  (171) 
0

>  <Rotatable Bonds>  (171) 
1

>  <Polar Surface Area>  (171) 
39.44

$$$$
CDB0172
     RDKit          3D

 33 35  0  0  0  0  0  0  0  0999 V2000
    4.0865    0.5290   -0.2397 C   0  0  0  0  0  0  0  0  0  0  0  0
    3.1239    0.7965    0.9166 C   0  0  0  0  0  0  0  0  0  0  0  0
    3.5146   -0.0125    2.1527 C   0  0  0  0  0  0  0  0  0  0  0  0
    1.7084    0.5277    0.5174 C   0  0  0  0  0  0  0  0  0  0  0  0
    1.0189   -0.5956    0.0984 C   0  0  0  0  0  0  0  0  0  0  0  0
   -0.3341   -0.1899   -0.1332 C   0  0  0  0  0  0  0  0  0  0  0  0
   -0.3566    1.1718    0.1696 C   0  0  0  0  0  0  0  0  0  0  0  0
    0.8710    1.6009    0.5602 O   0  0  0  0  0  0  0  0  0  0  0  0
   -1.4823    1.9876    0.0852 C   0  0  0  0  0  0  0  0  0  0  0  0
   -2.6531    1.3606   -0.3365 C   0  0  0  0  0  0  0  0  0  0  0  0
   -2.7068    0.0052   -0.6561 C   0  0  0  0  0  0  0  0  0  0  0  0
   -1.5475   -0.7823   -0.5573 C   0  0  0  0  0  0  0  0  0  0  0  0
   -3.9744   -0.5646   -1.0881 C   0  0  0  0  0  0  0  0  0  0  0  0
   -5.0566    0.2152   -1.1702 C   0  0  0  0  0  0  0  0  0  0  0  0
   -5.0254    1.6499   -0.8380 C   0  0  0  0  0  0  0  0  0  0  0  0
   -6.0380    2.3343   -0.9251 O   0  0  0  0  0  0  0  0  0  0  0  0
   -3.8061    2.1707   -0.4287 O   0  0  0  0  0  0  0  0  0  0  0  0
    1.6669   -1.7799   -0.0148 O   0  0  0  0  0  0  0  0  0  0  0  0
    0.8833   -2.8752   -0.4500 C   0  0  0  0  0  0  0  0  0  0  0  0
    4.0891   -0.5268   -0.5321 H   0  0  0  0  0  0  0  0  0  0  0  0
    3.8122    1.1176   -1.1224 H   0  0  0  0  0  0  0  0  0  0  0  0
    5.1103    0.8004    0.0394 H   0  0  0  0  0  0  0  0  0  0  0  0
    3.2128    1.8594    1.1784 H   0  0  0  0  0  0  0  0  0  0  0  0
    3.4939   -1.0903    1.9578 H   0  0  0  0  0  0  0  0  0  0  0  0
    2.8305    0.1881    2.9849 H   0  0  0  0  0  0  0  0  0  0  0  0
    4.5268    0.2479    2.4806 H   0  0  0  0  0  0  0  0  0  0  0  0
   -1.4417    3.0405    0.3333 H   0  0  0  0  0  0  0  0  0  0  0  0
   -1.5928   -1.8366   -0.8067 H   0  0  0  0  0  0  0  0  0  0  0  0
   -4.0253   -1.6185   -1.3387 H   0  0  0  0  0  0  0  0  0  0  0  0
   -6.0173   -0.1720   -1.4874 H   0  0  0  0  0  0  0  0  0  0  0  0
    0.0819   -3.0970    0.2618 H   0  0  0  0  0  0  0  0  0  0  0  0
    1.5336   -3.7545   -0.4937 H   0  0  0  0  0  0  0  0  0  0  0  0
    0.4932   -2.7075   -1.4589 H   0  0  0  0  0  0  0  0  0  0  0  0
  1  2  1  0
  2  3  1  0
  2  4  1  0
  4  5  2  0
  5  6  1  0
  6  7  1  0
  7  8  1  0
  7  9  2  0
  9 10  1  0
 10 11  2  0
 11 12  1  0
 11 13  1  0
 13 14  2  0
 14 15  1  0
 15 16  2  0
 15 17  1  0
  5 18  1  0
 18 19  1  0
  8  4  1  0
 12  6  2  0
 17 10  1  0
  1 20  1  0
  1 21  1  0
  1 22  1  0
  2 23  1  0
  3 24  1  0
  3 25  1  0
  3 26  1  0
  9 27  1  0
 12 28  1  0
 13 29  1  0
 14 30  1  0
 19 31  1  0
 19 32  1  0
 19 33  1  0
M  END
>  <Name>  (172) 
Peucedanin (Oreoselone Methyl Ether)

>  <PubChem ID>  (172) 
8616

>  <CDB ID>  (172) 
CDB0172

>  <Smiles>  (172) 
CC(C)C1=C(C2=C(O1)C=C3C(=C2)C=CC(=O)O3)OC

>  <Chemical class>  (172) 
7-Oxygenated Coumarins

>  <Natural source>  (172) 
Peucedanum officinale

>  <Molecular Formula>  (172) 
C15H14O4

>  <InChI-Key>  (172) 
YQBNJPACAUPNLV-UHFFFAOYSA-N

>  <Total Molweight>  (172) 
258.272

>  <cLogP>  (172) 
3.12

>  <cLogS>  (172) 
-4.442

>  <H-Acceptors>  (172) 
4

>  <H-Donors>  (172) 
0

>  <Rotatable Bonds>  (172) 
2

>  <Polar Surface Area>  (172) 
48.67

$$$$
CDB0173
     RDKit          3D

 31 33  0  0  0  0  0  0  0  0999 V2000
    3.8954    1.2086    0.0512 C   0  0  0  0  0  0  0  0  0  0  0  0
    3.1061   -0.0587    0.4109 C   0  0  0  0  0  0  0  0  0  0  0  0
    3.3625   -0.4065    1.8871 C   0  0  0  0  0  0  0  0  0  0  0  0
    1.6314    0.1161    0.1628 C   0  0  0  0  0  0  0  0  0  0  0  0
    0.8602    1.0997   -0.4294 C   0  0  0  0  0  0  0  0  0  0  0  0
   -0.4895    0.6637   -0.3683 C   0  0  0  0  0  0  0  0  0  0  0  0
   -0.4565   -0.5751    0.2603 C   0  0  0  0  0  0  0  0  0  0  0  0
    0.8224   -0.9091    0.5791 O   0  0  0  0  0  0  0  0  0  0  0  0
   -1.5794   -1.3536    0.5198 C   0  0  0  0  0  0  0  0  0  0  0  0
   -2.7945   -0.8085    0.0996 C   0  0  0  0  0  0  0  0  0  0  0  0
   -2.8916    0.4303   -0.5389 C   0  0  0  0  0  0  0  0  0  0  0  0
   -1.7325    1.1834   -0.7811 C   0  0  0  0  0  0  0  0  0  0  0  0
   -4.2041    0.9125   -0.9414 C   0  0  0  0  0  0  0  0  0  0  0  0
   -5.2868    0.1691   -0.6945 C   0  0  0  0  0  0  0  0  0  0  0  0
   -5.2125   -1.1390   -0.0216 C   0  0  0  0  0  0  0  0  0  0  0  0
   -6.2276   -1.7921    0.1900 O   0  0  0  0  0  0  0  0  0  0  0  0
   -3.9512   -1.5803    0.3524 O   0  0  0  0  0  0  0  0  0  0  0  0
    3.6036   -1.1488   -0.4404 N   0  0  0  0  0  0  0  0  0  0  0  0
    4.9689    1.0781    0.2343 H   0  0  0  0  0  0  0  0  0  0  0  0
    3.5627    2.0664    0.6482 H   0  0  0  0  0  0  0  0  0  0  0  0
    3.7732    1.4781   -1.0052 H   0  0  0  0  0  0  0  0  0  0  0  0
    4.4338   -0.5168    2.0931 H   0  0  0  0  0  0  0  0  0  0  0  0
    2.9764    0.3782    2.5489 H   0  0  0  0  0  0  0  0  0  0  0  0
    2.8746   -1.3450    2.1771 H   0  0  0  0  0  0  0  0  0  0  0  0
    1.2280    2.0194   -0.8618 H   0  0  0  0  0  0  0  0  0  0  0  0
   -1.5087   -2.3143    1.0123 H   0  0  0  0  0  0  0  0  0  0  0  0
   -1.7800    2.1482   -1.2770 H   0  0  0  0  0  0  0  0  0  0  0  0
   -4.2862    1.8726   -1.4391 H   0  0  0  0  0  0  0  0  0  0  0  0
   -6.2799    0.4945   -0.9794 H   0  0  0  0  0  0  0  0  0  0  0  0
    3.0312   -1.9751   -0.2597 H   0  0  0  0  0  0  0  0  0  0  0  0
    4.5505   -1.3961   -0.1615 H   0  0  0  0  0  0  0  0  0  0  0  0
  1  2  1  0
  2  3  1  0
  2  4  1  0
  4  5  2  0
  5  6  1  0
  6  7  1  0
  7  8  1  0
  7  9  2  0
  9 10  1  0
 10 11  2  0
 11 12  1  0
 11 13  1  0
 13 14  2  0
 14 15  1  0
 15 16  2  0
 15 17  1  0
  2 18  1  0
  8  4  1  0
 12  6  2  0
 17 10  1  0
  1 19  1  0
  1 20  1  0
  1 21  1  0
  3 22  1  0
  3 23  1  0
  3 24  1  0
  5 25  1  0
  9 26  1  0
 12 27  1  0
 13 28  1  0
 14 29  1  0
 18 30  1  0
 18 31  1  0
M  END
>  <Name>  (173) 
Prangosine

>  <PubChem ID>  (173) 
177596

>  <CDB ID>  (173) 
CDB0173

>  <Smiles>  (173) 
CC(C)(C1=CC2=C(O1)C=C3C(=C2)C=CC(=O)O3)N

>  <Chemical class>  (173) 
7-Oxygenated Coumarins

>  <Natural source>  (173) 
Prangos pabularia

>  <Molecular Formula>  (173) 
C14H13NO3

>  <InChI-Key>  (173) 
IFPBIHSHJPJPCA-UHFFFAOYSA-N

>  <Total Molweight>  (173) 
243.261

>  <cLogP>  (173) 
1.8811

>  <cLogS>  (173) 
-3.998

>  <H-Acceptors>  (173) 
4

>  <H-Donors>  (173) 
1

>  <Rotatable Bonds>  (173) 
1

>  <Polar Surface Area>  (173) 
65.46

$$$$
CDB0174
     RDKit          3D

 32 34  0  0  0  0  0  0  0  0999 V2000
   -3.7398    0.4405   -0.7993 C   0  0  0  0  0  0  0  0  0  0  0  0
   -2.4716   -0.0317   -0.0689 C   0  0  0  0  0  0  0  0  0  0  0  0
   -2.1636    0.9058    1.1214 C   0  0  0  0  0  0  0  0  0  0  0  0
   -0.8264    0.5570    1.7724 C   0  0  0  0  0  0  0  0  0  0  0  0
    0.2218    0.2588    0.7346 C   0  0  0  0  0  0  0  0  0  0  0  0
   -0.1332   -0.0023   -0.5944 C   0  0  0  0  0  0  0  0  0  0  0  0
   -1.4202    0.0091   -1.0566 O   0  0  0  0  0  0  0  0  0  0  0  0
    0.8487   -0.2633   -1.5479 C   0  0  0  0  0  0  0  0  0  0  0  0
    2.1843   -0.2883   -1.1585 C   0  0  0  0  0  0  0  0  0  0  0  0
    2.5648   -0.0533    0.1598 C   0  0  0  0  0  0  0  0  0  0  0  0
    1.5769    0.2195    1.1086 C   0  0  0  0  0  0  0  0  0  0  0  0
    3.9762   -0.0964    0.5040 C   0  0  0  0  0  0  0  0  0  0  0  0
    4.8768   -0.3597   -0.4478 C   0  0  0  0  0  0  0  0  0  0  0  0
    4.4971   -0.6117   -1.8494 C   0  0  0  0  0  0  0  0  0  0  0  0
    5.3521   -0.8510   -2.6943 O   0  0  0  0  0  0  0  0  0  0  0  0
    3.1435   -0.5642   -2.1526 O   0  0  0  0  0  0  0  0  0  0  0  0
   -2.1216    2.2792    0.7014 O   0  0  0  0  0  0  0  0  0  0  0  0
   -2.6866   -1.4889    0.3741 C   0  0  0  0  0  0  0  0  0  0  0  0
   -3.6025    1.4360   -1.2361 H   0  0  0  0  0  0  0  0  0  0  0  0
   -4.6038    0.4695   -0.1273 H   0  0  0  0  0  0  0  0  0  0  0  0
   -3.9766   -0.2249   -1.6380 H   0  0  0  0  0  0  0  0  0  0  0  0
   -2.9578    0.8448    1.8743 H   0  0  0  0  0  0  0  0  0  0  0  0
   -0.9382   -0.3267    2.4114 H   0  0  0  0  0  0  0  0  0  0  0  0
   -0.4907    1.3929    2.3980 H   0  0  0  0  0  0  0  0  0  0  0  0
    0.5744   -0.4520   -2.5816 H   0  0  0  0  0  0  0  0  0  0  0  0
    1.8530    0.4104    2.1439 H   0  0  0  0  0  0  0  0  0  0  0  0
    4.2793    0.0866    1.5289 H   0  0  0  0  0  0  0  0  0  0  0  0
    5.9380   -0.4007   -0.2344 H   0  0  0  0  0  0  0  0  0  0  0  0
   -1.5380    2.3184   -0.0801 H   0  0  0  0  0  0  0  0  0  0  0  0
   -1.7887   -1.9203    0.8277 H   0  0  0  0  0  0  0  0  0  0  0  0
   -3.5069   -1.5689    1.0950 H   0  0  0  0  0  0  0  0  0  0  0  0
   -2.9206   -2.1242   -0.4882 H   0  0  0  0  0  0  0  0  0  0  0  0
  1  2  1  0
  2  3  1  0
  3  4  1  0
  4  5  1  0
  5  6  2  0
  6  7  1  0
  6  8  1  0
  8  9  2  0
  9 10  1  0
 10 11  2  0
 10 12  1  0
 12 13  2  0
 13 14  1  0
 14 15  2  0
 14 16  1  0
  3 17  1  0
  2 18  1  0
  7  2  1  0
 11  5  1  0
 16  9  1  0
  1 19  1  0
  1 20  1  0
  1 21  1  0
  3 22  1  0
  4 23  1  0
  4 24  1  0
  8 25  1  0
 11 26  1  0
 12 27  1  0
 13 28  1  0
 17 29  1  0
 18 30  1  0
 18 31  1  0
 18 32  1  0
M  END
>  <Name>  (174) 
Aegelinol

>  <PubChem ID>  (174) 
600671

>  <CDB ID>  (174) 
CDB0174

>  <Smiles>  (174) 
CC1(C(CC2=C(O1)C=C3C(=C2)C=CC(=O)O3)O)C

>  <Chemical class>  (174) 
7-Oxygenated Coumarins

>  <Natural source>  (174) 
Aegle marmelos

>  <Molecular Formula>  (174) 
C14H14O4

>  <InChI-Key>  (174) 
BGXFQDFSVDZUIW-GFCCVEGCSA-N

>  <Total Molweight>  (174) 
246.261

>  <cLogP>  (174) 
1.8358

>  <cLogS>  (174) 
-3.095

>  <H-Acceptors>  (174) 
4

>  <H-Donors>  (174) 
1

>  <Rotatable Bonds>  (174) 
0

>  <Polar Surface Area>  (174) 
55.76

$$$$
CDB0175
     RDKit          3D

 44 46  0  0  0  0  0  0  0  0999 V2000
    7.1261   -0.7129    0.3932 C   0  0  0  0  0  0  0  0  0  0  0  0
    5.7033   -0.2839    0.2203 C   0  0  0  0  0  0  0  0  0  0  0  0
    5.2426    0.9304   -0.1461 C   0  0  0  0  0  0  0  0  0  0  0  0
    6.0898    2.1340   -0.4474 C   0  0  0  0  0  0  0  0  0  0  0  0
    3.7737    1.1986   -0.2801 C   0  0  0  0  0  0  0  0  0  0  0  0
    3.3203    2.2761   -0.6389 O   0  0  0  0  0  0  0  0  0  0  0  0
    3.0262    0.1053    0.0199 O   0  0  0  0  0  0  0  0  0  0  0  0
    1.6104    0.3315    0.0089 C   0  0  1  0  0  0  0  0  0  0  0  0
    0.9238   -1.0217   -0.1086 C   0  0  0  0  0  0  0  0  0  0  0  0
   -0.5578   -0.8215   -0.0837 C   0  0  0  0  0  0  0  0  0  0  0  0
   -1.4326   -1.6725   -0.7597 C   0  0  0  0  0  0  0  0  0  0  0  0
   -2.8142   -1.4521   -0.7011 C   0  0  0  0  0  0  0  0  0  0  0  0
   -3.3522   -0.3863    0.0415 C   0  0  0  0  0  0  0  0  0  0  0  0
   -2.4630    0.4551    0.7316 C   0  0  0  0  0  0  0  0  0  0  0  0
   -1.0893    0.2285    0.6609 C   0  0  0  0  0  0  0  0  0  0  0  0
   -0.2598    1.0804    1.4150 O   0  0  0  0  0  0  0  0  0  0  0  0
    1.1274    1.0182    1.2858 C   0  0  0  0  0  0  0  0  0  0  0  0
    1.8671    1.5137    2.1307 O   0  0  0  0  0  0  0  0  0  0  0  0
   -4.8631   -0.1691    0.0921 C   0  0  0  0  0  0  0  0  0  0  0  0
   -5.2190    1.2179   -0.4769 C   0  0  0  0  0  0  0  0  0  0  0  0
   -5.3679   -0.2779    1.5438 C   0  0  0  0  0  0  0  0  0  0  0  0
   -5.5937   -1.2076   -0.7301 C   0  0  0  0  0  0  0  0  0  0  0  0
   -4.9486   -2.1729   -1.3914 C   0  0  0  0  0  0  0  0  0  0  0  0
   -3.5886   -2.3422   -1.4109 O   0  0  0  0  0  0  0  0  0  0  0  0
    7.3001   -0.9988    1.4352 H   0  0  0  0  0  0  0  0  0  0  0  0
    7.8562    0.0527    0.1266 H   0  0  0  0  0  0  0  0  0  0  0  0
    7.3221   -1.5876   -0.2354 H   0  0  0  0  0  0  0  0  0  0  0  0
    4.9946   -1.0843    0.4284 H   0  0  0  0  0  0  0  0  0  0  0  0
    7.1569    1.9675   -0.2879 H   0  0  0  0  0  0  0  0  0  0  0  0
    5.8015    2.9732    0.1953 H   0  0  0  0  0  0  0  0  0  0  0  0
    5.9595    2.4373   -1.4919 H   0  0  0  0  0  0  0  0  0  0  0  0
    1.3357    0.9629   -0.8474 H   0  0  0  0  0  0  0  0  0  0  0  0
    1.2184   -1.6845    0.7147 H   0  0  0  0  0  0  0  0  0  0  0  0
    1.2381   -1.5102   -1.0390 H   0  0  0  0  0  0  0  0  0  0  0  0
   -1.0527   -2.5102   -1.3399 H   0  0  0  0  0  0  0  0  0  0  0  0
   -2.8304    1.2840    1.3312 H   0  0  0  0  0  0  0  0  0  0  0  0
   -4.8510    1.3359   -1.5037 H   0  0  0  0  0  0  0  0  0  0  0  0
   -6.3041    1.3773   -0.4934 H   0  0  0  0  0  0  0  0  0  0  0  0
   -4.7848    2.0282    0.1199 H   0  0  0  0  0  0  0  0  0  0  0  0
   -6.4584   -0.1722    1.5973 H   0  0  0  0  0  0  0  0  0  0  0  0
   -5.1067   -1.2469    1.9869 H   0  0  0  0  0  0  0  0  0  0  0  0
   -4.9385    0.5000    2.1854 H   0  0  0  0  0  0  0  0  0  0  0  0
   -6.6781   -1.1621   -0.7798 H   0  0  0  0  0  0  0  0  0  0  0  0
   -5.4390   -2.9310   -1.9873 H   0  0  0  0  0  0  0  0  0  0  0  0
  1  2  1  0
  2  3  2  3
  3  4  1  0
  3  5  1  0
  5  6  2  0
  5  7  1  0
  7  8  1  0
  8  9  1  0
  9 10  1  0
 10 11  2  0
 11 12  1  0
 12 13  2  0
 13 14  1  0
 14 15  2  0
 15 16  1  0
 16 17  1  0
 17 18  2  0
 13 19  1  0
 19 20  1  0
 19 21  1  0
 19 22  1  0
 22 23  2  0
 23 24  1  0
 17  8  1  0
 15 10  1  0
 24 12  1  0
  1 25  1  0
  1 26  1  0
  1 27  1  0
  2 28  1  0
  4 29  1  0
  4 30  1  0
  4 31  1  0
  8 32  1  6
  9 33  1  0
  9 34  1  0
 11 35  1  0
 14 36  1  0
 20 37  1  0
 20 38  1  0
 20 39  1  0
 21 40  1  0
 21 41  1  0
 21 42  1  0
 22 43  1  0
 23 44  1  0
M  END
>  <Name>  (175) 
Agasyllin

>  <PubChem ID>  (175) 
15596603

>  <CDB ID>  (175) 
CDB0175

>  <Smiles>  (175) 
CC=C(C)C(=O)O[C@H]1CC2=CC3=C(C=C2OC1=O)C(C)(C)C=CO3

>  <Chemical class>  (175) 
7-Oxygenated Coumarins

>  <Natural source>  (175) 
Agasyllis latifolia

>  <Molecular Formula>  (175) 
C19H20O5

>  <InChI-Key>  (175) 
GRMGLFLWIKMFAE-INIZCTEOSA-N

>  <Total Molweight>  (175) 
328.363

>  <cLogP>  (175) 
3.308

>  <cLogS>  (175) 
-4.2

>  <H-Acceptors>  (175) 
5

>  <H-Donors>  (175) 
0

>  <Rotatable Bonds>  (175) 
3

>  <Polar Surface Area>  (175) 
61.83

$$$$
CDB0176
     RDKit          3D

 32 34  0  0  0  0  0  0  0  0999 V2000
   -3.7398    0.4405   -0.7993 C   0  0  0  0  0  0  0  0  0  0  0  0
   -2.4716   -0.0317   -0.0689 C   0  0  0  0  0  0  0  0  0  0  0  0
   -2.1636    0.9058    1.1214 C   0  0  0  0  0  0  0  0  0  0  0  0
   -0.8264    0.5570    1.7724 C   0  0  0  0  0  0  0  0  0  0  0  0
    0.2218    0.2588    0.7346 C   0  0  0  0  0  0  0  0  0  0  0  0
   -0.1332   -0.0023   -0.5944 C   0  0  0  0  0  0  0  0  0  0  0  0
   -1.4202    0.0091   -1.0566 O   0  0  0  0  0  0  0  0  0  0  0  0
    0.8487   -0.2633   -1.5479 C   0  0  0  0  0  0  0  0  0  0  0  0
    2.1843   -0.2883   -1.1585 C   0  0  0  0  0  0  0  0  0  0  0  0
    2.5648   -0.0533    0.1598 C   0  0  0  0  0  0  0  0  0  0  0  0
    1.5769    0.2195    1.1086 C   0  0  0  0  0  0  0  0  0  0  0  0
    3.9762   -0.0964    0.5040 C   0  0  0  0  0  0  0  0  0  0  0  0
    4.8768   -0.3597   -0.4478 C   0  0  0  0  0  0  0  0  0  0  0  0
    4.4971   -0.6117   -1.8494 C   0  0  0  0  0  0  0  0  0  0  0  0
    5.3521   -0.8510   -2.6943 O   0  0  0  0  0  0  0  0  0  0  0  0
    3.1435   -0.5642   -2.1526 O   0  0  0  0  0  0  0  0  0  0  0  0
   -2.1216    2.2792    0.7014 O   0  0  0  0  0  0  0  0  0  0  0  0
   -2.6866   -1.4889    0.3741 C   0  0  0  0  0  0  0  0  0  0  0  0
   -3.6025    1.4360   -1.2361 H   0  0  0  0  0  0  0  0  0  0  0  0
   -4.6038    0.4695   -0.1273 H   0  0  0  0  0  0  0  0  0  0  0  0
   -3.9766   -0.2249   -1.6380 H   0  0  0  0  0  0  0  0  0  0  0  0
   -2.9578    0.8448    1.8743 H   0  0  0  0  0  0  0  0  0  0  0  0
   -0.9382   -0.3267    2.4114 H   0  0  0  0  0  0  0  0  0  0  0  0
   -0.4907    1.3929    2.3980 H   0  0  0  0  0  0  0  0  0  0  0  0
    0.5744   -0.4520   -2.5816 H   0  0  0  0  0  0  0  0  0  0  0  0
    1.8530    0.4104    2.1439 H   0  0  0  0  0  0  0  0  0  0  0  0
    4.2793    0.0866    1.5289 H   0  0  0  0  0  0  0  0  0  0  0  0
    5.9380   -0.4007   -0.2344 H   0  0  0  0  0  0  0  0  0  0  0  0
   -1.5380    2.3184   -0.0801 H   0  0  0  0  0  0  0  0  0  0  0  0
   -1.7887   -1.9203    0.8277 H   0  0  0  0  0  0  0  0  0  0  0  0
   -3.5069   -1.5689    1.0950 H   0  0  0  0  0  0  0  0  0  0  0  0
   -2.9206   -2.1242   -0.4882 H   0  0  0  0  0  0  0  0  0  0  0  0
  1  2  1  0
  2  3  1  0
  3  4  1  0
  4  5  1  0
  5  6  2  0
  6  7  1  0
  6  8  1  0
  8  9  2  0
  9 10  1  0
 10 11  2  0
 10 12  1  0
 12 13  2  0
 13 14  1  0
 14 15  2  0
 14 16  1  0
  3 17  1  0
  2 18  1  0
  7  2  1  0
 11  5  1  0
 16  9  1  0
  1 19  1  0
  1 20  1  0
  1 21  1  0
  3 22  1  0
  4 23  1  0
  4 24  1  0
  8 25  1  0
 11 26  1  0
 12 27  1  0
 13 28  1  0
 17 29  1  0
 18 30  1  0
 18 31  1  0
 18 32  1  0
M  END
>  <Name>  (176) 
Decursinol

>  <PubChem ID>  (176) 
442127

>  <CDB ID>  (176) 
CDB0176

>  <Smiles>  (176) 
CC1(C(CC2=C(O1)C=C3C(=C2)C=CC(=O)O3)O)C

>  <Chemical class>  (176) 
7-Oxygenated Coumarins

>  <Natural source>  (176) 
Angelica gigas

>  <Molecular Formula>  (176) 
C14H14O4

>  <InChI-Key>  (176) 
BGXFQDFSVDZUIW-GFCCVEGCSA-N

>  <Total Molweight>  (176) 
246.261

>  <cLogP>  (176) 
1.8358

>  <cLogS>  (176) 
-3.095

>  <H-Acceptors>  (176) 
4

>  <H-Donors>  (176) 
1

>  <Rotatable Bonds>  (176) 
0

>  <Polar Surface Area>  (176) 
55.76

$$$$
CDB0177
     RDKit          3D

 44 46  0  0  0  0  0  0  0  0999 V2000
   -6.4131    0.5470    0.7867 C   0  0  0  0  0  0  0  0  0  0  0  0
   -5.1489    0.7890    0.0028 C   0  0  0  0  0  0  0  0  0  0  0  0
   -3.9901    0.2259    0.3981 C   0  0  0  0  0  0  0  0  0  0  0  0
   -2.6607    0.4056   -0.2336 C   0  0  0  0  0  0  0  0  0  0  0  0
   -2.3556    1.2494   -1.0560 O   0  0  0  0  0  0  0  0  0  0  0  0
   -1.8334   -0.5353    0.2898 O   0  0  0  0  0  0  0  0  0  0  0  0
   -0.4825   -0.5373   -0.2180 C   0  0  0  0  0  0  0  0  0  0  0  0
    0.3368    0.5584    0.4649 C   0  0  0  0  0  0  0  0  0  0  0  0
    1.8051    0.3642    0.2264 C   0  0  0  0  0  0  0  0  0  0  0  0
    2.3050   -0.8704   -0.2031 C   0  0  0  0  0  0  0  0  0  0  0  0
    3.6695   -1.0362   -0.4324 C   0  0  0  0  0  0  0  0  0  0  0  0
    4.5318    0.0322   -0.2064 C   0  0  0  0  0  0  0  0  0  0  0  0
    4.0644    1.2652    0.2396 C   0  0  0  0  0  0  0  0  0  0  0  0
    2.6948    1.4283    0.4582 C   0  0  0  0  0  0  0  0  0  0  0  0
    5.0157    2.3419    0.4594 C   0  0  0  0  0  0  0  0  0  0  0  0
    6.3149    2.1272    0.2308 C   0  0  0  0  0  0  0  0  0  0  0  0
    6.8324    0.8300   -0.2399 C   0  0  0  0  0  0  0  0  0  0  0  0
    8.0317    0.6706   -0.4358 O   0  0  0  0  0  0  0  0  0  0  0  0
    5.9039   -0.1814   -0.4435 O   0  0  0  0  0  0  0  0  0  0  0  0
    1.5266   -1.9675   -0.4456 O   0  0  0  0  0  0  0  0  0  0  0  0
    0.1659   -1.9216    0.0269 C   0  0  0  0  0  0  0  0  0  0  0  0
   -0.5887   -2.9848   -0.7911 C   0  0  0  0  0  0  0  0  0  0  0  0
    0.1397   -2.3592    1.5027 C   0  0  0  0  0  0  0  0  0  0  0  0
   -5.3343    1.6729   -1.2007 C   0  0  0  0  0  0  0  0  0  0  0  0
   -6.2434   -0.0813    1.6675 H   0  0  0  0  0  0  0  0  0  0  0  0
   -6.8304    1.4981    1.1337 H   0  0  0  0  0  0  0  0  0  0  0  0
   -7.1589    0.0465    0.1605 H   0  0  0  0  0  0  0  0  0  0  0  0
   -3.9789   -0.4181    1.2733 H   0  0  0  0  0  0  0  0  0  0  0  0
   -0.4878   -0.3536   -1.3027 H   0  0  0  0  0  0  0  0  0  0  0  0
    0.0234    1.5380    0.0844 H   0  0  0  0  0  0  0  0  0  0  0  0
    0.1403    0.5710    1.5442 H   0  0  0  0  0  0  0  0  0  0  0  0
    4.0559   -1.9904   -0.7779 H   0  0  0  0  0  0  0  0  0  0  0  0
    2.3075    2.3853    0.8026 H   0  0  0  0  0  0  0  0  0  0  0  0
    4.6574    3.3053    0.8045 H   0  0  0  0  0  0  0  0  0  0  0  0
    7.0568    2.9019    0.3810 H   0  0  0  0  0  0  0  0  0  0  0  0
   -1.6348   -3.0769   -0.4816 H   0  0  0  0  0  0  0  0  0  0  0  0
   -0.1116   -3.9667   -0.6894 H   0  0  0  0  0  0  0  0  0  0  0  0
   -0.5631   -2.7419   -1.8597 H   0  0  0  0  0  0  0  0  0  0  0  0
   -0.8815   -2.4166    1.8929 H   0  0  0  0  0  0  0  0  0  0  0  0
    0.7129   -1.6792    2.1410 H   0  0  0  0  0  0  0  0  0  0  0  0
    0.6069   -3.3443    1.6197 H   0  0  0  0  0  0  0  0  0  0  0  0
   -4.5130    1.6169   -1.9168 H   0  0  0  0  0  0  0  0  0  0  0  0
   -6.2358    1.3769   -1.7490 H   0  0  0  0  0  0  0  0  0  0  0  0
   -5.4526    2.7150   -0.8873 H   0  0  0  0  0  0  0  0  0  0  0  0
  1  2  1  0
  2  3  2  3
  3  4  1  0
  4  5  2  0
  4  6  1  0
  6  7  1  0
  7  8  1  0
  8  9  1  0
  9 10  2  0
 10 11  1  0
 11 12  2  0
 12 13  1  0
 13 14  2  0
 13 15  1  0
 15 16  2  0
 16 17  1  0
 17 18  2  0
 17 19  1  0
 10 20  1  0
 20 21  1  0
 21 22  1  0
 21 23  1  0
  2 24  1  0
 21  7  1  0
 14  9  1  0
 19 12  1  0
  1 25  1  0
  1 26  1  0
  1 27  1  0
  3 28  1  0
  7 29  1  0
  8 30  1  0
  8 31  1  0
 11 32  1  0
 14 33  1  0
 15 34  1  0
 16 35  1  0
 22 36  1  0
 22 37  1  0
 22 38  1  0
 23 39  1  0
 23 40  1  0
 23 41  1  0
 24 42  1  0
 24 43  1  0
 24 44  1  0
M  END
>  <Name>  (177) 
Decursin

>  <PubChem ID>  (177) 
442126

>  <CDB ID>  (177) 
CDB0177

>  <Smiles>  (177) 
CC(=CC(=O)OC1CC2=C(C=C3C(=C2)C=CC(=O)O3)OC1(C)C)C

>  <Chemical class>  (177) 
7-Oxygenated Coumarins

>  <Natural source>  (177) 
Angelica decursiva

>  <Molecular Formula>  (177) 
C19H20O5

>  <InChI-Key>  (177) 
CUKSFECWKQBVED-MRXNPFEDSA-N

>  <Total Molweight>  (177) 
328.363

>  <cLogP>  (177) 
3.5834

>  <cLogS>  (177) 
-3.941

>  <H-Acceptors>  (177) 
5

>  <H-Donors>  (177) 
0

>  <Rotatable Bonds>  (177) 
3

>  <Polar Surface Area>  (177) 
61.83

$$$$
CDB0178
     RDKit          3D

 30 32  0  0  0  0  0  0  0  0999 V2000
    3.7969   -1.0577   -0.1539 C   0  0  0  0  0  0  0  0  0  0  0  0
    2.5286   -0.1908   -0.1218 C   0  0  0  0  0  0  0  0  0  0  0  0
    2.2567    0.3295   -1.5344 C   0  0  0  0  0  0  0  0  0  0  0  0
    0.9025    0.9750   -1.6079 C   0  0  0  0  0  0  0  0  0  0  0  0
    0.6499    1.8970   -2.3761 O   0  0  0  0  0  0  0  0  0  0  0  0
   -0.1470    0.3924   -0.7545 C   0  0  0  0  0  0  0  0  0  0  0  0
    0.2031   -0.6080    0.1535 C   0  0  0  0  0  0  0  0  0  0  0  0
    1.4790   -1.0607    0.3402 O   0  0  0  0  0  0  0  0  0  0  0  0
   -0.7854   -1.2141    0.9254 C   0  0  0  0  0  0  0  0  0  0  0  0
   -2.1058   -0.7871    0.7938 C   0  0  0  0  0  0  0  0  0  0  0  0
   -2.4663    0.2252   -0.0951 C   0  0  0  0  0  0  0  0  0  0  0  0
   -1.4766    0.8193   -0.8788 C   0  0  0  0  0  0  0  0  0  0  0  0
   -3.8616    0.6227   -0.1812 C   0  0  0  0  0  0  0  0  0  0  0  0
   -4.7677    0.0143    0.5903 C   0  0  0  0  0  0  0  0  0  0  0  0
   -4.4112   -1.0570    1.5376 C   0  0  0  0  0  0  0  0  0  0  0  0
   -5.2695   -1.5916    2.2297 O   0  0  0  0  0  0  0  0  0  0  0  0
   -3.0722   -1.4195    1.6006 O   0  0  0  0  0  0  0  0  0  0  0  0
    2.7478    0.9447    0.8925 C   0  0  0  0  0  0  0  0  0  0  0  0
    4.0127   -1.4719    0.8379 H   0  0  0  0  0  0  0  0  0  0  0  0
    4.6695   -0.4872   -0.4889 H   0  0  0  0  0  0  0  0  0  0  0  0
    3.6657   -1.9162   -0.8230 H   0  0  0  0  0  0  0  0  0  0  0  0
    2.2556   -0.4884   -2.2654 H   0  0  0  0  0  0  0  0  0  0  0  0
    3.0178    1.0601   -1.8307 H   0  0  0  0  0  0  0  0  0  0  0  0
   -0.5301   -2.0021    1.6281 H   0  0  0  0  0  0  0  0  0  0  0  0
   -1.7272    1.6025   -1.5917 H   0  0  0  0  0  0  0  0  0  0  0  0
   -4.1487    1.4088   -0.8715 H   0  0  0  0  0  0  0  0  0  0  0  0
   -5.8172    0.2808    0.5566 H   0  0  0  0  0  0  0  0  0  0  0  0
    1.8684    1.5906    0.9842 H   0  0  0  0  0  0  0  0  0  0  0  0
    2.9327    0.5379    1.8935 H   0  0  0  0  0  0  0  0  0  0  0  0
    3.5998    1.5726    0.6111 H   0  0  0  0  0  0  0  0  0  0  0  0
  1  2  1  0
  2  3  1  0
  3  4  1  0
  4  5  2  0
  4  6  1  0
  6  7  1  0
  7  8  1  0
  7  9  2  0
  9 10  1  0
 10 11  2  0
 11 12  1  0
 11 13  1  0
 13 14  2  0
 14 15  1  0
 15 16  2  0
 15 17  1  0
  2 18  1  0
  8  2  1  0
 12  6  2  0
 17 10  1  0
  1 19  1  0
  1 20  1  0
  1 21  1  0
  3 22  1  0
  3 23  1  0
  9 24  1  0
 12 25  1  0
 13 26  1  0
 14 27  1  0
 18 28  1  0
 18 29  1  0
 18 30  1  0
M  END
>  <Name>  (178) 
Graveolone

>  <PubChem ID>  (178) 
177751

>  <CDB ID>  (178) 
CDB0178

>  <Smiles>  (178) 
CC1(CC(=O)C2=C(O1)C=C3C(=C2)C=CC(=O)O3)C

>  <Chemical class>  (178) 
7-Oxygenated Coumarins

>  <Natural source>  (178) 
Anethum graveolens

>  <Molecular Formula>  (178) 
C14H12O4

>  <InChI-Key>  (178) 
WEDGVCZUPFZNDE-UHFFFAOYSA-N

>  <Total Molweight>  (178) 
244.245

>  <cLogP>  (178) 
2.1371

>  <cLogS>  (178) 
-3.675

>  <H-Acceptors>  (178) 
4

>  <H-Donors>  (178) 
0

>  <Rotatable Bonds>  (178) 
0

>  <Polar Surface Area>  (178) 
52.6

$$$$
CDB0179
     RDKit          3D

 48 50  0  0  0  0  0  0  0  0999 V2000
    5.3196    1.6519    1.6194 C   0  0  0  0  0  0  0  0  0  0  0  0
    5.1317    0.1819    1.4091 C   0  0  0  0  0  0  0  0  0  0  0  0
    4.0198   -0.4628    1.0039 C   0  0  0  0  0  0  0  0  0  0  0  0
    3.9935   -1.9513    0.8068 C   0  0  0  0  0  0  0  0  0  0  0  0
    2.7358    0.2592    0.7848 C   0  0  0  0  0  0  0  0  0  0  0  0
    2.3511    1.2207    1.4301 O   0  0  0  0  0  0  0  0  0  0  0  0
    2.0554   -0.3357   -0.2234 O   0  0  0  0  0  0  0  0  0  0  0  0
    0.7811    0.2550   -0.5620 C   0  0  0  0  0  0  0  0  0  0  0  0
   -0.2959   -0.0300    0.5037 C   0  0  0  0  0  0  0  0  0  0  0  0
   -1.6662    0.3013   -0.0343 C   0  0  0  0  0  0  0  0  0  0  0  0
   -1.8819    0.4751   -1.4069 C   0  0  0  0  0  0  0  0  0  0  0  0
   -3.1486    0.8070   -1.8874 C   0  0  0  0  0  0  0  0  0  0  0  0
   -4.2041    0.9420   -0.9917 C   0  0  0  0  0  0  0  0  0  0  0  0
   -4.0258    0.7595    0.3757 C   0  0  0  0  0  0  0  0  0  0  0  0
   -2.7527    0.4396    0.8524 C   0  0  0  0  0  0  0  0  0  0  0  0
   -5.1679    0.9100    1.2618 C   0  0  0  0  0  0  0  0  0  0  0  0
   -6.3616    1.2207    0.7472 C   0  0  0  0  0  0  0  0  0  0  0  0
   -6.5731    1.4208   -0.6976 C   0  0  0  0  0  0  0  0  0  0  0  0
   -7.6829    1.7070   -1.1319 O   0  0  0  0  0  0  0  0  0  0  0  0
   -5.4667    1.2710   -1.5221 O   0  0  0  0  0  0  0  0  0  0  0  0
   -0.9083    0.3660   -2.3598 O   0  0  0  0  0  0  0  0  0  0  0  0
    0.3334   -0.2432   -1.9565 C   0  0  0  0  0  0  0  0  0  0  0  0
    1.3668    0.2163   -3.0043 C   0  0  0  0  0  0  0  0  0  0  0  0
    0.2029   -1.7708   -2.0810 C   0  0  0  0  0  0  0  0  0  0  0  0
   -0.2894   -1.4162    0.8764 O   0  0  0  0  0  0  0  0  0  0  0  0
   -0.0424   -1.6203    2.2604 C   0  0  0  0  0  0  0  0  0  0  0  0
    6.2845    1.9564    1.2000 H   0  0  0  0  0  0  0  0  0  0  0  0
    5.3280    1.8802    2.6892 H   0  0  0  0  0  0  0  0  0  0  0  0
    4.5572    2.2621    1.1301 H   0  0  0  0  0  0  0  0  0  0  0  0
    6.0292   -0.4070    1.5944 H   0  0  0  0  0  0  0  0  0  0  0  0
    3.8874   -2.1996   -0.2543 H   0  0  0  0  0  0  0  0  0  0  0  0
    3.1579   -2.3975    1.3564 H   0  0  0  0  0  0  0  0  0  0  0  0
    4.9115   -2.4279    1.1674 H   0  0  0  0  0  0  0  0  0  0  0  0
    0.9016    1.3471   -0.6344 H   0  0  0  0  0  0  0  0  0  0  0  0
   -0.1013    0.6011    1.3805 H   0  0  0  0  0  0  0  0  0  0  0  0
   -3.3105    0.9512   -2.9515 H   0  0  0  0  0  0  0  0  0  0  0  0
   -2.5939    0.2958    1.9188 H   0  0  0  0  0  0  0  0  0  0  0  0
   -5.0359    0.7668    2.3284 H   0  0  0  0  0  0  0  0  0  0  0  0
   -7.2387    1.3416    1.3711 H   0  0  0  0  0  0  0  0  0  0  0  0
    1.4766    1.3070   -2.9894 H   0  0  0  0  0  0  0  0  0  0  0  0
    1.0373   -0.0422   -4.0177 H   0  0  0  0  0  0  0  0  0  0  0  0
    2.3508   -0.2338   -2.8377 H   0  0  0  0  0  0  0  0  0  0  0  0
   -0.0210   -2.0535   -3.1168 H   0  0  0  0  0  0  0  0  0  0  0  0
    1.1213   -2.2846   -1.7797 H   0  0  0  0  0  0  0  0  0  0  0  0
   -0.6288   -2.1641   -1.4892 H   0  0  0  0  0  0  0  0  0  0  0  0
   -0.0477   -2.6963    2.4539 H   0  0  0  0  0  0  0  0  0  0  0  0
   -0.8257   -1.1551    2.8656 H   0  0  0  0  0  0  0  0  0  0  0  0
    0.9363   -1.2227    2.5421 H   0  0  0  0  0  0  0  0  0  0  0  0
  1  2  1  0
  2  3  2  3
  3  4  1  0
  3  5  1  0
  5  6  2  0
  5  7  1  0
  7  8  1  0
  8  9  1  0
  9 10  1  0
 10 11  2  0
 11 12  1  0
 12 13  2  0
 13 14  1  0
 14 15  2  0
 14 16  1  0
 16 17  2  0
 17 18  1  0
 18 19  2  0
 18 20  1  0
 11 21  1  0
 21 22  1  0
 22 23  1  0
 22 24  1  0
  9 25  1  0
 25 26  1  0
 22  8  1  0
 15 10  1  0
 20 13  1  0
  1 27  1  0
  1 28  1  0
  1 29  1  0
  2 30  1  0
  4 31  1  0
  4 32  1  0
  4 33  1  0
  8 34  1  0
  9 35  1  0
 12 36  1  0
 15 37  1  0
 16 38  1  0
 17 39  1  0
 23 40  1  0
 23 41  1  0
 23 42  1  0
 24 43  1  0
 24 44  1  0
 24 45  1  0
 26 46  1  0
 26 47  1  0
 26 48  1  0
M  END
>  <Name>  (179) 
Peuarin

>  <PubChem ID>  (179) 
101316837

>  <CDB ID>  (179) 
CDB0179

>  <Smiles>  (179) 
CC=C(C)C(=O)OC1C(C2=C(C=C3C(=C2)C=CC(=O)O3)OC1(C)C)OC

>  <Chemical class>  (179) 
7-Oxygenated Coumarins

>  <Natural source>  (179) 
Peucedanum arenarium

>  <Molecular Formula>  (179) 
C20H22O6

>  <InChI-Key>  (179) 
VGPPSZXNPGNBJV-UHFFFAOYSA-N

>  <Total Molweight>  (179) 
358.389

>  <cLogP>  (179) 
3.2853

>  <cLogS>  (179) 
-3.521

>  <H-Acceptors>  (179) 
6

>  <H-Donors>  (179) 
0

>  <Rotatable Bonds>  (179) 
4

>  <Polar Surface Area>  (179) 
71.06

$$$$
CDB0180
     RDKit          3D

 57 59  0  0  0  0  0  0  0  0999 V2000
   -3.3936   -4.3808   -1.4485 C   0  0  0  0  0  0  0  0  0  0  0  0
   -2.4303   -3.2407   -1.5317 C   0  0  0  0  0  0  0  0  0  0  0  0
   -2.0727   -2.3880   -0.5500 C   0  0  0  0  0  0  0  0  0  0  0  0
   -2.5475   -2.4319    0.8718 C   0  0  0  0  0  0  0  0  0  0  0  0
   -1.0833   -1.3268   -0.9154 C   0  0  0  0  0  0  0  0  0  0  0  0
   -0.4313   -1.3136   -1.9486 O   0  0  0  0  0  0  0  0  0  0  0  0
   -1.0314   -0.3867    0.0581 O   0  0  0  0  0  0  0  0  0  0  0  0
   -0.0856    0.6879   -0.1298 C   0  0  0  0  0  0  0  0  0  0  0  0
    1.2057    0.3692    0.6454 C   0  0  0  0  0  0  0  0  0  0  0  0
    2.0301    1.6568    0.8672 C   0  0  0  0  0  0  0  0  0  0  0  0
    1.2767    2.6483    1.5886 O   0  0  0  0  0  0  0  0  0  0  0  0
   -0.0186    2.8398    1.2001 C   0  0  0  0  0  0  0  0  0  0  0  0
   -0.7307    1.9540    0.3839 C   0  0  0  0  0  0  0  0  0  0  0  0
   -2.0537    2.2762    0.0177 C   0  0  0  0  0  0  0  0  0  0  0  0
   -2.6618    3.4407    0.4914 C   0  0  0  0  0  0  0  0  0  0  0  0
   -4.0270    3.7969    0.1428 C   0  0  0  0  0  0  0  0  0  0  0  0
   -4.5563    4.9232    0.6303 C   0  0  0  0  0  0  0  0  0  0  0  0
   -3.8068    5.8314    1.5167 C   0  0  0  0  0  0  0  0  0  0  0  0
   -4.3262    6.8560    1.9439 O   0  0  0  0  0  0  0  0  0  0  0  0
   -2.5049    5.4687    1.8333 O   0  0  0  0  0  0  0  0  0  0  0  0
   -1.9364    4.2843    1.3260 C   0  0  0  0  0  0  0  0  0  0  0  0
   -0.6239    3.9980    1.6868 C   0  0  0  0  0  0  0  0  0  0  0  0
    3.2405    1.3346    1.7630 C   0  0  0  0  0  0  0  0  0  0  0  0
    2.5662    2.2823   -0.4340 C   0  0  0  0  0  0  0  0  0  0  0  0
    2.0133   -0.5750   -0.0962 O   0  0  0  0  0  0  0  0  0  0  0  0
    1.8891   -1.8840    0.2322 C   0  0  0  0  0  0  0  0  0  0  0  0
    1.1601   -2.3257    1.1084 O   0  0  0  0  0  0  0  0  0  0  0  0
    2.7375   -2.7566   -0.6400 C   0  0  0  0  0  0  0  0  0  0  0  0
    3.7127   -2.2331   -1.4114 C   0  0  0  0  0  0  0  0  0  0  0  0
    4.6516   -2.9631   -2.3186 C   0  0  0  0  0  0  0  0  0  0  0  0
    2.3762   -4.2113   -0.5511 C   0  0  0  0  0  0  0  0  0  0  0  0
   -3.9295   -4.4347   -0.4991 H   0  0  0  0  0  0  0  0  0  0  0  0
   -2.8625   -5.3259   -1.5976 H   0  0  0  0  0  0  0  0  0  0  0  0
   -4.1427   -4.2836   -2.2410 H   0  0  0  0  0  0  0  0  0  0  0  0
   -1.9911   -3.1146   -2.5227 H   0  0  0  0  0  0  0  0  0  0  0  0
   -1.6984   -2.4048    1.5633 H   0  0  0  0  0  0  0  0  0  0  0  0
   -3.1081   -3.3390    1.1088 H   0  0  0  0  0  0  0  0  0  0  0  0
   -3.1967   -1.5758    1.0836 H   0  0  0  0  0  0  0  0  0  0  0  0
    0.1304    0.8328   -1.1961 H   0  0  0  0  0  0  0  0  0  0  0  0
    0.9367   -0.0425    1.6289 H   0  0  0  0  0  0  0  0  0  0  0  0
   -2.6077    1.6034   -0.6348 H   0  0  0  0  0  0  0  0  0  0  0  0
   -4.5975    3.1433   -0.5076 H   0  0  0  0  0  0  0  0  0  0  0  0
   -5.5696    5.2260    0.3963 H   0  0  0  0  0  0  0  0  0  0  0  0
   -0.0728    4.6751    2.3330 H   0  0  0  0  0  0  0  0  0  0  0  0
    3.8036    2.2451    1.9999 H   0  0  0  0  0  0  0  0  0  0  0  0
    3.9241    0.6208    1.2923 H   0  0  0  0  0  0  0  0  0  0  0  0
    2.9127    0.9196    2.7232 H   0  0  0  0  0  0  0  0  0  0  0  0
    3.2197    1.5934   -0.9787 H   0  0  0  0  0  0  0  0  0  0  0  0
    3.1358    3.1934   -0.2155 H   0  0  0  0  0  0  0  0  0  0  0  0
    1.7580    2.5890   -1.1054 H   0  0  0  0  0  0  0  0  0  0  0  0
    3.8814   -1.1571   -1.4028 H   0  0  0  0  0  0  0  0  0  0  0  0
    5.6826   -2.6883   -2.0728 H   0  0  0  0  0  0  0  0  0  0  0  0
    4.5789   -4.0496   -2.2472 H   0  0  0  0  0  0  0  0  0  0  0  0
    4.4620   -2.6741   -3.3569 H   0  0  0  0  0  0  0  0  0  0  0  0
    2.6416   -4.6088    0.4342 H   0  0  0  0  0  0  0  0  0  0  0  0
    1.2989   -4.3465   -0.6999 H   0  0  0  0  0  0  0  0  0  0  0  0
    2.8727   -4.8274   -1.3037 H   0  0  0  0  0  0  0  0  0  0  0  0
  1  2  1  0
  2  3  2  3
  3  4  1  0
  3  5  1  0
  5  6  2  0
  5  7  1  0
  7  8  1  0
  8  9  1  0
  9 10  1  0
 10 11  1  0
 11 12  1  0
 12 13  2  0
 13 14  1  0
 14 15  2  0
 15 16  1  0
 16 17  2  0
 17 18  1  0
 18 19  2  0
 18 20  1  0
 20 21  1  0
 21 22  2  0
 10 23  1  0
 10 24  1  0
  9 25  1  0
 25 26  1  0
 26 27  2  0
 26 28  1  0
 28 29  2  3
 29 30  1  0
 28 31  1  0
 13  8  1  0
 22 12  1  0
 21 15  1  0
  1 32  1  0
  1 33  1  0
  1 34  1  0
  2 35  1  0
  4 36  1  0
  4 37  1  0
  4 38  1  0
  8 39  1  0
  9 40  1  0
 14 41  1  0
 16 42  1  0
 17 43  1  0
 22 44  1  0
 23 45  1  0
 23 46  1  0
 23 47  1  0
 24 48  1  0
 24 49  1  0
 24 50  1  0
 29 51  1  0
 30 52  1  0
 30 53  1  0
 30 54  1  0
 31 55  1  0
 31 56  1  0
 31 57  1  0
M  END
>  <Name>  (180) 
Xanthalin

>  <PubChem ID>  (180) 
6450241

>  <CDB ID>  (180) 
CDB0180

>  <Smiles>  (180) 
CC=C(C)C(=O)OC1C(C(OC2=C1C=C3C=CC(=O)OC3=C2)(C)C)OC(=O)C(=CC)C

>  <Chemical class>  (180) 
7-Oxygenated Coumarins

>  <Natural source>  (180) 
Xanthogalum purpurascens

>  <Molecular Formula>  (180) 
C24H26O7

>  <InChI-Key>  (180) 
LBKPHBYDOWPFMZ-UHFFFAOYSA-N

>  <Total Molweight>  (180) 
426.463

>  <cLogP>  (180) 
4.605

>  <cLogS>  (180) 
-4.239

>  <H-Acceptors>  (180) 
7

>  <H-Donors>  (180) 
0

>  <Rotatable Bonds>  (180) 
6

>  <Polar Surface Area>  (180) 
88.13

$$$$
CDB0181
     RDKit          3D

 58 61  0  0  0  0  0  0  0  0999 V2000
    5.1392   -3.1249    0.0987 C   0  0  0  0  0  0  0  0  0  0  0  0
    3.9342   -2.2888    0.3933 C   0  0  0  0  0  0  0  0  0  0  0  0
    2.8602   -2.6182    1.1405 C   0  0  0  0  0  0  0  0  0  0  0  0
    2.6608   -3.9221    1.8587 C   0  0  0  0  0  0  0  0  0  0  0  0
    1.7165   -1.6666    1.3168 C   0  0  0  0  0  0  0  0  0  0  0  0
    0.6739   -1.9752    1.8760 O   0  0  0  0  0  0  0  0  0  0  0  0
    1.9890   -0.4464    0.7949 O   0  0  0  0  0  0  0  0  0  0  0  0
    0.9647    0.5693    0.9163 C   0  0  0  0  0  0  0  0  0  0  0  0
    0.0831    0.5905   -0.3455 C   0  0  0  0  0  0  0  0  0  0  0  0
   -0.6743    1.8914   -0.4690 C   0  0  0  0  0  0  0  0  0  0  0  0
   -0.3335    2.9965    0.3180 C   0  0  0  0  0  0  0  0  0  0  0  0
   -1.0523    4.1871    0.2179 C   0  0  0  0  0  0  0  0  0  0  0  0
   -2.0927    4.2795   -0.7008 C   0  0  0  0  0  0  0  0  0  0  0  0
   -2.4349    3.2107   -1.5225 C   0  0  0  0  0  0  0  0  0  0  0  0
   -1.7198    2.0169   -1.4071 C   0  0  0  0  0  0  0  0  0  0  0  0
   -3.5244    3.3707   -2.4708 C   0  0  0  0  0  0  0  0  0  0  0  0
   -4.1752    4.5365   -2.5322 C   0  0  0  0  0  0  0  0  0  0  0  0
   -3.8321    5.6813   -1.6697 C   0  0  0  0  0  0  0  0  0  0  0  0
   -4.4529    6.7346   -1.7537 O   0  0  0  0  0  0  0  0  0  0  0  0
   -2.7860    5.5031   -0.7747 O   0  0  0  0  0  0  0  0  0  0  0  0
    0.6861    3.0001    1.2268 O   0  0  0  0  0  0  0  0  0  0  0  0
    1.6517    1.9386    1.1170 C   0  0  0  0  0  0  0  0  0  0  0  0
    2.4055    1.9347    2.4598 C   0  0  0  0  0  0  0  0  0  0  0  0
    2.6670    2.2909    0.0136 C   0  0  0  0  0  0  0  0  0  0  0  0
   -0.8969   -0.4649   -0.2549 O   0  0  0  0  0  0  0  0  0  0  0  0
   -0.6211   -1.6064   -0.9371 C   0  0  0  0  0  0  0  0  0  0  0  0
    0.3766   -1.8103   -1.6140 O   0  0  0  0  0  0  0  0  0  0  0  0
   -1.6808   -2.6367   -0.7467 C   0  0  0  0  0  0  0  0  0  0  0  0
   -3.1414   -2.1892   -0.7356 C   0  0  0  0  0  0  0  0  0  0  0  0
   -2.5532   -2.7905   -1.8904 O   0  0  0  0  0  0  0  0  0  0  0  0
   -4.2323   -2.9785   -0.1050 C   0  0  0  0  0  0  0  0  0  0  0  0
   -1.2926   -3.9420   -0.1157 C   0  0  0  0  0  0  0  0  0  0  0  0
    6.0306   -2.6461    0.5158 H   0  0  0  0  0  0  0  0  0  0  0  0
    5.2724   -3.2033   -0.9852 H   0  0  0  0  0  0  0  0  0  0  0  0
    5.0823   -4.1397    0.4955 H   0  0  0  0  0  0  0  0  0  0  0  0
    3.9697   -1.3142   -0.0923 H   0  0  0  0  0  0  0  0  0  0  0  0
    1.8192   -4.4705    1.4221 H   0  0  0  0  0  0  0  0  0  0  0  0
    2.4454   -3.7443    2.9182 H   0  0  0  0  0  0  0  0  0  0  0  0
    3.5338   -4.5768    1.8230 H   0  0  0  0  0  0  0  0  0  0  0  0
    0.3302    0.3694    1.7920 H   0  0  0  0  0  0  0  0  0  0  0  0
    0.7002    0.4771   -1.2460 H   0  0  0  0  0  0  0  0  0  0  0  0
   -0.7953    5.0377    0.8426 H   0  0  0  0  0  0  0  0  0  0  0  0
   -1.9748    1.1701   -2.0425 H   0  0  0  0  0  0  0  0  0  0  0  0
   -3.7943    2.5419   -3.1161 H   0  0  0  0  0  0  0  0  0  0  0  0
   -4.9927    4.6984   -3.2242 H   0  0  0  0  0  0  0  0  0  0  0  0
    3.2091    1.1915    2.4800 H   0  0  0  0  0  0  0  0  0  0  0  0
    2.8424    2.9193    2.6643 H   0  0  0  0  0  0  0  0  0  0  0  0
    1.7195    1.7266    3.2891 H   0  0  0  0  0  0  0  0  0  0  0  0
    3.1104    3.2761    0.2007 H   0  0  0  0  0  0  0  0  0  0  0  0
    3.4772    1.5569   -0.0443 H   0  0  0  0  0  0  0  0  0  0  0  0
    2.1961    2.3567   -0.9723 H   0  0  0  0  0  0  0  0  0  0  0  0
   -3.3651   -1.1302   -0.7640 H   0  0  0  0  0  0  0  0  0  0  0  0
   -5.2040   -2.6246   -0.4642 H   0  0  0  0  0  0  0  0  0  0  0  0
   -4.2074   -2.8530    0.9817 H   0  0  0  0  0  0  0  0  0  0  0  0
   -4.1676   -4.0469   -0.3312 H   0  0  0  0  0  0  0  0  0  0  0  0
   -1.9876   -4.7503   -0.3630 H   0  0  0  0  0  0  0  0  0  0  0  0
   -0.2999   -4.2551   -0.4559 H   0  0  0  0  0  0  0  0  0  0  0  0
   -1.2617   -3.8382    0.9732 H   0  0  0  0  0  0  0  0  0  0  0  0
  1  2  1  0
  2  3  2  3
  3  4  1  0
  3  5  1  0
  5  6  2  0
  5  7  1  0
  7  8  1  0
  8  9  1  0
  9 10  1  0
 10 11  2  0
 11 12  1  0
 12 13  2  0
 13 14  1  0
 14 15  2  0
 14 16  1  0
 16 17  2  0
 17 18  1  0
 18 19  2  0
 18 20  1  0
 11 21  1  0
 21 22  1  0
 22 23  1  0
 22 24  1  0
  9 25  1  0
 25 26  1  0
 26 27  2  0
 26 28  1  0
 28 29  1  0
 29 30  1  0
 29 31  1  0
 28 32  1  0
 22  8  1  0
 15 10  1  0
 20 13  1  0
 30 28  1  0
  1 33  1  0
  1 34  1  0
  1 35  1  0
  2 36  1  0
  4 37  1  0
  4 38  1  0
  4 39  1  0
  8 40  1  0
  9 41  1  0
 12 42  1  0
 15 43  1  0
 16 44  1  0
 17 45  1  0
 23 46  1  0
 23 47  1  0
 23 48  1  0
 24 49  1  0
 24 50  1  0
 24 51  1  0
 29 52  1  0
 31 53  1  0
 31 54  1  0
 31 55  1  0
 32 56  1  0
 32 57  1  0
 32 58  1  0
M  END
>  <Name>  (181) 
Peuarenarine

>  <PubChem ID>  (181) 
5868511

>  <CDB ID>  (181) 
CDB0181

>  <Smiles>  (181) 
CC=C(C)C(=O)OC1C(C2=C(C=C3C(=C2)C=CC(=O)O3)OC1(C)C)OC(=O)C4(C(O4)C)C

>  <Chemical class>  (181) 
7-Oxygenated Coumarins

>  <Natural source>  (181) 
Peucedanum arenarium

>  <Molecular Formula>  (181) 
C24H26O8

>  <InChI-Key>  (181) 
SHZIIRHXBSCNRY-UHFFFAOYSA-N

>  <Total Molweight>  (181) 
442.462

>  <cLogP>  (181) 
3.1742

>  <cLogS>  (181) 
-4.135

>  <H-Acceptors>  (181) 
8

>  <H-Donors>  (181) 
0

>  <Rotatable Bonds>  (181) 
6

>  <Polar Surface Area>  (181) 
100.66

$$$$
CDB0182
     RDKit          3D

 59 63  0  0  0  0  0  0  0  0999 V2000
    3.7517   -4.7694    0.0358 C   0  0  0  0  0  0  0  0  0  0  0  0
    3.2954   -3.3984   -0.3137 C   0  0  0  0  0  0  0  0  0  0  0  0
    1.8406   -2.9421   -0.2283 C   0  0  0  0  0  0  0  0  0  0  0  0
    2.8177   -2.6237    0.7889 O   0  0  0  0  0  0  0  0  0  0  0  0
    0.7741   -3.8832    0.2397 C   0  0  0  0  0  0  0  0  0  0  0  0
    1.4545   -1.7934   -1.0916 C   0  0  0  0  0  0  0  0  0  0  0  0
    1.5718   -1.8291   -2.3090 O   0  0  0  0  0  0  0  0  0  0  0  0
    1.0087   -0.7307   -0.3675 O   0  0  0  0  0  0  0  0  0  0  0  0
    0.7534    0.4491   -1.1479 C   0  0  0  0  0  0  0  0  0  0  0  0
   -0.6447    0.4169   -1.7890 C   0  0  0  0  0  0  0  0  0  0  0  0
   -0.9113    1.7661   -2.5008 C   0  0  0  0  0  0  0  0  0  0  0  0
   -0.7743    2.9005   -1.6210 O   0  0  0  0  0  0  0  0  0  0  0  0
    0.1320    2.8261   -0.6001 C   0  0  0  0  0  0  0  0  0  0  0  0
    0.8884    1.6869   -0.2922 C   0  0  0  0  0  0  0  0  0  0  0  0
    1.8043    1.7370    0.7771 C   0  0  0  0  0  0  0  0  0  0  0  0
    1.9383    2.8965    1.5434 C   0  0  0  0  0  0  0  0  0  0  0  0
    2.8618    2.9798    2.6625 C   0  0  0  0  0  0  0  0  0  0  0  0
    2.9471    4.1165    3.3602 C   0  0  0  0  0  0  0  0  0  0  0  0
    2.1369    5.3050    3.0391 C   0  0  0  0  0  0  0  0  0  0  0  0
    2.2463    6.3317    3.6996 O   0  0  0  0  0  0  0  0  0  0  0  0
    1.2624    5.1996    1.9663 O   0  0  0  0  0  0  0  0  0  0  0  0
    1.1621    4.0063    1.2247 C   0  0  0  0  0  0  0  0  0  0  0  0
    0.2627    3.9857    0.1634 C   0  0  0  0  0  0  0  0  0  0  0  0
    0.0195    1.9878   -3.7053 C   0  0  0  0  0  0  0  0  0  0  0  0
   -2.3641    1.8133   -3.0079 C   0  0  0  0  0  0  0  0  0  0  0  0
   -1.6599    0.2358   -0.7634 O   0  0  0  0  0  0  0  0  0  0  0  0
   -2.0366   -1.0315   -0.4700 C   0  0  0  0  0  0  0  0  0  0  0  0
   -1.6271   -2.0493   -1.0091 O   0  0  0  0  0  0  0  0  0  0  0  0
   -3.0768   -1.0738    0.5922 C   0  0  0  0  0  0  0  0  0  0  0  0
   -2.6507   -1.6255    1.9489 C   0  0  0  0  0  0  0  0  0  0  0  0
   -2.8277   -0.2236    1.7333 O   0  0  0  0  0  0  0  0  0  0  0  0
   -3.5972   -2.2332    2.9209 C   0  0  0  0  0  0  0  0  0  0  0  0
   -4.5152   -1.1073    0.1747 C   0  0  0  0  0  0  0  0  0  0  0  0
    4.8436   -4.7906    0.1118 H   0  0  0  0  0  0  0  0  0  0  0  0
    3.4535   -5.4768   -0.7439 H   0  0  0  0  0  0  0  0  0  0  0  0
    3.3504   -5.1171    0.9925 H   0  0  0  0  0  0  0  0  0  0  0  0
    3.9389   -2.9219   -1.0438 H   0  0  0  0  0  0  0  0  0  0  0  0
    1.1451   -4.6321    0.9449 H   0  0  0  0  0  0  0  0  0  0  0  0
   -0.0202   -3.3306    0.7496 H   0  0  0  0  0  0  0  0  0  0  0  0
    0.3343   -4.4089   -0.6136 H   0  0  0  0  0  0  0  0  0  0  0  0
    1.5289    0.5371   -1.9199 H   0  0  0  0  0  0  0  0  0  0  0  0
   -0.7196   -0.4017   -2.5153 H   0  0  0  0  0  0  0  0  0  0  0  0
    2.4068    0.8613    1.0127 H   0  0  0  0  0  0  0  0  0  0  0  0
    3.4661    2.1162    2.9174 H   0  0  0  0  0  0  0  0  0  0  0  0
    3.6205    4.2204    4.2021 H   0  0  0  0  0  0  0  0  0  0  0  0
   -0.3322    4.8642   -0.0680 H   0  0  0  0  0  0  0  0  0  0  0  0
    1.0617    2.1248   -3.4006 H   0  0  0  0  0  0  0  0  0  0  0  0
   -0.0320    1.1518   -4.4103 H   0  0  0  0  0  0  0  0  0  0  0  0
   -0.2518    2.9059   -4.2401 H   0  0  0  0  0  0  0  0  0  0  0  0
   -3.0790    1.7872   -2.1778 H   0  0  0  0  0  0  0  0  0  0  0  0
   -2.5612    2.7507   -3.5415 H   0  0  0  0  0  0  0  0  0  0  0  0
   -2.5813    0.9795   -3.6836 H   0  0  0  0  0  0  0  0  0  0  0  0
   -1.6416   -2.0009    2.0632 H   0  0  0  0  0  0  0  0  0  0  0  0
   -3.1348   -2.2797    3.9120 H   0  0  0  0  0  0  0  0  0  0  0  0
   -3.8459   -3.2540    2.6155 H   0  0  0  0  0  0  0  0  0  0  0  0
   -4.5271   -1.6653    3.0181 H   0  0  0  0  0  0  0  0  0  0  0  0
   -5.1970   -0.8435    0.9888 H   0  0  0  0  0  0  0  0  0  0  0  0
   -4.6907   -0.3956   -0.6391 H   0  0  0  0  0  0  0  0  0  0  0  0
   -4.7793   -2.1068   -0.1850 H   0  0  0  0  0  0  0  0  0  0  0  0
  1  2  1  0
  2  3  1  0
  3  4  1  0
  3  5  1  0
  3  6  1  0
  6  7  2  0
  6  8  1  0
  8  9  1  0
  9 10  1  0
 10 11  1  0
 11 12  1  0
 12 13  1  0
 13 14  2  0
 14 15  1  0
 15 16  2  0
 16 17  1  0
 17 18  2  0
 18 19  1  0
 19 20  2  0
 19 21  1  0
 21 22  1  0
 22 23  2  0
 11 24  1  0
 11 25  1  0
 10 26  1  0
 26 27  1  0
 27 28  2  0
 27 29  1  0
 29 30  1  0
 30 31  1  0
 30 32  1  0
 29 33  1  0
  4  2  1  0
 14  9  1  0
 23 13  1  0
 22 16  1  0
 31 29  1  0
  1 34  1  0
  1 35  1  0
  1 36  1  0
  2 37  1  0
  5 38  1  0
  5 39  1  0
  5 40  1  0
  9 41  1  0
 10 42  1  0
 15 43  1  0
 17 44  1  0
 18 45  1  0
 23 46  1  0
 24 47  1  0
 24 48  1  0
 24 49  1  0
 25 50  1  0
 25 51  1  0
 25 52  1  0
 30 53  1  0
 32 54  1  0
 32 55  1  0
 32 56  1  0
 33 57  1  0
 33 58  1  0
 33 59  1  0
M  END
>  <Name>  (182) 
Peuarenine

>  <PubChem ID>  (182) 
3084679

>  <CDB ID>  (182) 
CDB0182

>  <Smiles>  (182) 
CC1C(O1)(C)C(=O)OC2C(C(OC3=C2C=C4C=CC(=O)OC4=C3)(C)C)OC(=O)C5(C(O5)C)C

>  <Chemical class>  (182) 
7-Oxygenated Coumarins

>  <Natural source>  (182) 
Peucedanum arenarium

>  <Molecular Formula>  (182) 
C24H26O9

>  <InChI-Key>  (182) 
XVGNCXGTKQLGAI-UHFFFAOYSA-N

>  <Total Molweight>  (182) 
458.461

>  <cLogP>  (182) 
1.7434

>  <cLogS>  (182) 
-4.031

>  <H-Acceptors>  (182) 
9

>  <H-Donors>  (182) 
0

>  <Rotatable Bonds>  (182) 
6

>  <Polar Surface Area>  (182) 
113.19

$$$$
CDB0183
     RDKit          3D

 63 65  0  0  0  0  0  0  0  0999 V2000
    0.2136   -0.5851    3.8387 C   0  0  0  0  0  0  0  0  0  0  0  0
   -0.3128   -1.9646    3.4472 C   0  0  0  0  0  0  0  0  0  0  0  0
   -1.5179   -1.9636    2.4731 C   0  0  0  0  0  0  0  0  0  0  0  0
   -2.7106   -1.1230    2.9320 C   0  0  0  0  0  0  0  0  0  0  0  0
   -1.0559   -1.5380    1.0665 C   0  0  0  0  0  0  0  0  0  0  0  0
   -0.8180   -2.3348    0.1641 O   0  0  0  0  0  0  0  0  0  0  0  0
   -0.9478   -0.1927    0.9412 O   0  0  0  0  0  0  0  0  0  0  0  0
   -0.6452    0.3238   -0.3764 C   0  0  0  0  0  0  0  0  0  0  0  0
    0.8746    0.5474   -0.5203 C   0  0  0  0  0  0  0  0  0  0  0  0
    1.1682    1.6407   -1.5752 C   0  0  0  0  0  0  0  0  0  0  0  0
    0.5171    2.8784   -1.2427 O   0  0  0  0  0  0  0  0  0  0  0  0
   -0.8032    2.7943   -0.9082 C   0  0  0  0  0  0  0  0  0  0  0  0
   -1.4264    1.6107   -0.5026 C   0  0  0  0  0  0  0  0  0  0  0  0
   -2.8091    1.6301   -0.2236 C   0  0  0  0  0  0  0  0  0  0  0  0
   -3.5386    2.8181   -0.3096 C   0  0  0  0  0  0  0  0  0  0  0  0
   -4.9609    2.8756   -0.0166 C   0  0  0  0  0  0  0  0  0  0  0  0
   -5.6040    4.0434   -0.1122 C   0  0  0  0  0  0  0  0  0  0  0  0
   -4.9262    5.2911   -0.5074 C   0  0  0  0  0  0  0  0  0  0  0  0
   -5.5497    6.3430   -0.5865 O   0  0  0  0  0  0  0  0  0  0  0  0
   -3.5676    5.2085   -0.7811 O   0  0  0  0  0  0  0  0  0  0  0  0
   -2.8791    3.9842   -0.6833 C   0  0  0  0  0  0  0  0  0  0  0  0
   -1.5208    3.9874   -0.9820 C   0  0  0  0  0  0  0  0  0  0  0  0
    2.6734    1.9649   -1.5686 C   0  0  0  0  0  0  0  0  0  0  0  0
    0.7888    1.2309   -3.0115 C   0  0  0  0  0  0  0  0  0  0  0  0
    1.5370   -0.6734   -0.9469 O   0  0  0  0  0  0  0  0  0  0  0  0
    2.0825   -1.4619    0.0184 C   0  0  0  0  0  0  0  0  0  0  0  0
    1.9898   -1.2478    1.2220 O   0  0  0  0  0  0  0  0  0  0  0  0
    2.8742   -2.6427   -0.5832 C   0  0  0  0  0  0  0  0  0  0  0  0
    1.9293   -3.4970   -1.4324 C   0  0  0  0  0  0  0  0  0  0  0  0
    4.0708   -2.1024   -1.4042 C   0  0  0  0  0  0  0  0  0  0  0  0
    4.9372   -3.1913   -2.0343 C   0  0  0  0  0  0  0  0  0  0  0  0
    5.1448   -1.0924   -0.3613 Cl  0  0  0  0  0  0  0  0  0  0  0  0
    3.3493   -3.5031    0.4658 O   0  0  0  0  0  0  0  0  0  0  0  0
   -2.0226   -3.3135    2.3211 O   0  0  0  0  0  0  0  0  0  0  0  0
   -0.7172   -2.8304    4.9830 Cl  0  0  0  0  0  0  0  0  0  0  0  0
    0.5097    0.0049    2.9688 H   0  0  0  0  0  0  0  0  0  0  0  0
   -0.5296   -0.0074    4.3982 H   0  0  0  0  0  0  0  0  0  0  0  0
    1.1011   -0.6796    4.4752 H   0  0  0  0  0  0  0  0  0  0  0  0
    0.5024   -2.5510    3.0098 H   0  0  0  0  0  0  0  0  0  0  0  0
   -3.5202   -1.1731    2.1936 H   0  0  0  0  0  0  0  0  0  0  0  0
   -3.1286   -1.5013    3.8708 H   0  0  0  0  0  0  0  0  0  0  0  0
   -2.4554   -0.0674    3.0651 H   0  0  0  0  0  0  0  0  0  0  0  0
   -1.0060   -0.3640   -1.1525 H   0  0  0  0  0  0  0  0  0  0  0  0
    1.2777    0.8817    0.4462 H   0  0  0  0  0  0  0  0  0  0  0  0
   -3.3107    0.7103    0.0721 H   0  0  0  0  0  0  0  0  0  0  0  0
   -5.4817    1.9708    0.2770 H   0  0  0  0  0  0  0  0  0  0  0  0
   -6.6632    4.1311    0.0977 H   0  0  0  0  0  0  0  0  0  0  0  0
   -1.0276    4.9078   -1.2813 H   0  0  0  0  0  0  0  0  0  0  0  0
    2.8945    2.8011   -2.2426 H   0  0  0  0  0  0  0  0  0  0  0  0
    3.2813    1.1090   -1.8760 H   0  0  0  0  0  0  0  0  0  0  0  0
    2.9986    2.2819   -0.5709 H   0  0  0  0  0  0  0  0  0  0  0  0
    1.3541    0.3558   -3.3484 H   0  0  0  0  0  0  0  0  0  0  0  0
   -0.2773    1.0014   -3.1059 H   0  0  0  0  0  0  0  0  0  0  0  0
    0.9838    2.0537   -3.7095 H   0  0  0  0  0  0  0  0  0  0  0  0
    1.5632   -2.9554   -2.3107 H   0  0  0  0  0  0  0  0  0  0  0  0
    1.0614   -3.8138   -0.8440 H   0  0  0  0  0  0  0  0  0  0  0  0
    2.4130   -4.4211   -1.7664 H   0  0  0  0  0  0  0  0  0  0  0  0
    3.7165   -1.4345   -2.1971 H   0  0  0  0  0  0  0  0  0  0  0  0
    5.3331   -3.8829   -1.2831 H   0  0  0  0  0  0  0  0  0  0  0  0
    4.3701   -3.7733   -2.7670 H   0  0  0  0  0  0  0  0  0  0  0  0
    5.7884   -2.7528   -2.5675 H   0  0  0  0  0  0  0  0  0  0  0  0
    3.7874   -2.9271    1.1233 H   0  0  0  0  0  0  0  0  0  0  0  0
   -1.3529   -3.8200    1.8219 H   0  0  0  0  0  0  0  0  0  0  0  0
  1  2  1  0
  2  3  1  0
  3  4  1  0
  3  5  1  0
  5  6  2  0
  5  7  1  0
  7  8  1  0
  8  9  1  0
  9 10  1  0
 10 11  1  0
 11 12  1  0
 12 13  2  0
 13 14  1  0
 14 15  2  0
 15 16  1  0
 16 17  2  0
 17 18  1  0
 18 19  2  0
 18 20  1  0
 20 21  1  0
 21 22  2  0
 10 23  1  0
 10 24  1  0
  9 25  1  0
 25 26  1  0
 26 27  2  0
 26 28  1  0
 28 29  1  0
 28 30  1  0
 30 31  1  0
 30 32  1  0
 28 33  1  0
  3 34  1  0
  2 35  1  0
 13  8  1  0
 22 12  1  0
 21 15  1  0
  1 36  1  0
  1 37  1  0
  1 38  1  0
  2 39  1  0
  4 40  1  0
  4 41  1  0
  4 42  1  0
  8 43  1  0
  9 44  1  0
 14 45  1  0
 16 46  1  0
 17 47  1  0
 22 48  1  0
 23 49  1  0
 23 50  1  0
 23 51  1  0
 24 52  1  0
 24 53  1  0
 24 54  1  0
 29 55  1  0
 29 56  1  0
 29 57  1  0
 30 58  1  0
 31 59  1  0
 31 60  1  0
 31 61  1  0
 33 62  1  0
 34 63  1  0
M  END
>  <Name>  (183) 
Peuchloridin

>  <PubChem ID>  (183) 
101286260

>  <CDB ID>  (183) 
CDB0183

>  <Smiles>  (183) 
CC(C(C)(C(=O)OC1C(C(OC2=C1C=C3C=CC(=O)OC3=C2)(C)C)OC(=O)C(C)(C(C)Cl)O)O)Cl

>  <Chemical class>  (183) 
7-Oxygenated Coumarins

>  <Natural source>  (183) 
Peucedanum arenarium

>  <Molecular Formula>  (183) 
C24H28Cl2O9

>  <InChI-Key>  (183) 
RNLMARCKTLBYFJ-UHFFFAOYSA-N

>  <Total Molweight>  (183) 
531.383

>  <cLogP>  (183) 
2.9768

>  <cLogS>  (183) 
-4.521

>  <H-Acceptors>  (183) 
9

>  <H-Donors>  (183) 
2

>  <Rotatable Bonds>  (183) 
8

>  <Polar Surface Area>  (183) 
128.59

$$$$
CDB0184
     RDKit          3D

 33 35  0  0  0  0  0  0  0  0999 V2000
   -2.2994    1.2039    1.7447 C   0  0  0  0  0  0  0  0  0  0  0  0
   -2.3551    0.6916    0.2947 C   0  0  0  0  0  0  0  0  0  0  0  0
   -2.3687   -0.8504    0.2292 C   0  0  0  0  0  0  0  0  0  0  0  0
   -1.0304   -1.4341    0.7066 C   0  0  0  0  0  0  0  0  0  0  0  0
    0.1431   -0.6464    0.1875 C   0  0  0  0  0  0  0  0  0  0  0  0
   -0.0413    0.6348   -0.3439 C   0  0  0  0  0  0  0  0  0  0  0  0
   -1.2504    1.2635   -0.4336 O   0  0  0  0  0  0  0  0  0  0  0  0
    1.0455    1.3579   -0.8347 C   0  0  0  0  0  0  0  0  0  0  0  0
    2.3212    0.8080   -0.7599 C   0  0  0  0  0  0  0  0  0  0  0  0
    2.5407   -0.4491   -0.2058 C   0  0  0  0  0  0  0  0  0  0  0  0
    1.4475   -1.1739    0.2732 C   0  0  0  0  0  0  0  0  0  0  0  0
    3.8979   -0.9652   -0.1438 C   0  0  0  0  0  0  0  0  0  0  0  0
    4.9037   -0.2256   -0.6210 C   0  0  0  0  0  0  0  0  0  0  0  0
    4.6948    1.1075   -1.2141 C   0  0  0  0  0  0  0  0  0  0  0  0
    5.6431    1.7561   -1.6407 O   0  0  0  0  0  0  0  0  0  0  0  0
    3.3897    1.5778   -1.2596 O   0  0  0  0  0  0  0  0  0  0  0  0
   -0.9620   -2.8036    0.2816 O   0  0  0  0  0  0  0  0  0  0  0  0
   -2.6410   -1.3151   -1.1086 O   0  0  0  0  0  0  0  0  0  0  0  0
   -3.6210    1.2608   -0.3672 C   0  0  0  0  0  0  0  0  0  0  0  0
   -3.1477    0.8356    2.3309 H   0  0  0  0  0  0  0  0  0  0  0  0
   -1.3764    0.9051    2.2518 H   0  0  0  0  0  0  0  0  0  0  0  0
   -2.3128    2.3000    1.7685 H   0  0  0  0  0  0  0  0  0  0  0  0
   -3.1816   -1.2523    0.8467 H   0  0  0  0  0  0  0  0  0  0  0  0
   -0.9935   -1.4234    1.8021 H   0  0  0  0  0  0  0  0  0  0  0  0
    0.8974    2.3453   -1.2626 H   0  0  0  0  0  0  0  0  0  0  0  0
    1.5987   -2.1570    0.7169 H   0  0  0  0  0  0  0  0  0  0  0  0
    4.0762   -1.9435    0.2885 H   0  0  0  0  0  0  0  0  0  0  0  0
    5.9298   -0.5718   -0.5949 H   0  0  0  0  0  0  0  0  0  0  0  0
   -0.5153   -2.8012   -0.5854 H   0  0  0  0  0  0  0  0  0  0  0  0
   -2.6129   -2.2890   -1.0543 H   0  0  0  0  0  0  0  0  0  0  0  0
   -3.6362    2.3553   -0.3024 H   0  0  0  0  0  0  0  0  0  0  0  0
   -4.5305    0.8748    0.1046 H   0  0  0  0  0  0  0  0  0  0  0  0
   -3.6528    1.0234   -1.4365 H   0  0  0  0  0  0  0  0  0  0  0  0
  1  2  1  0
  2  3  1  0
  3  4  1  0
  4  5  1  0
  5  6  2  0
  6  7  1  0
  6  8  1  0
  8  9  2  0
  9 10  1  0
 10 11  2  0
 10 12  1  0
 12 13  2  0
 13 14  1  0
 14 15  2  0
 14 16  1  0
  4 17  1  0
  3 18  1  0
  2 19  1  0
  7  2  1  0
 11  5  1  0
 16  9  1  0
  1 20  1  0
  1 21  1  0
  1 22  1  0
  3 23  1  0
  4 24  1  0
  8 25  1  0
 11 26  1  0
 12 27  1  0
 13 28  1  0
 17 29  1  0
 18 30  1  0
 19 31  1  0
 19 32  1  0
 19 33  1  0
M  END
>  <Name>  (184) 
( + )-Decursidinol

>  <PubChem ID>  (184) 
10355323

>  <CDB ID>  (184) 
CDB0184

>  <Smiles>  (184) 
CC1(C(C(C2=C(O1)C=C3C(=C2)C=CC(=O)O3)O)O)C

>  <Chemical class>  (184) 
7-Oxygenated Coumarins

>  <Natural source>  (184) 


>  <Molecular Formula>  (184) 
C14H14O5

>  <InChI-Key>  (184) 
SLXYBYCLCBXBFK-UHFFFAOYSA-N

>  <Total Molweight>  (184) 
262.26

>  <cLogP>  (184) 
1.1098

>  <cLogS>  (184) 
-2.547

>  <H-Acceptors>  (184) 
5

>  <H-Donors>  (184) 
2

>  <Rotatable Bonds>  (184) 
0

>  <Polar Surface Area>  (184) 
75.99

$$$$
CDB0185
     RDKit          3D

 45 47  0  0  0  0  0  0  0  0999 V2000
   -1.9275    2.2115   -2.8883 C   0  0  0  0  0  0  0  0  0  0  0  0
   -2.9417    2.4702   -1.8200 C   0  0  0  0  0  0  0  0  0  0  0  0
   -3.2788    1.6709   -0.7884 C   0  0  0  0  0  0  0  0  0  0  0  0
   -4.3914    2.0149    0.1579 C   0  0  0  0  0  0  0  0  0  0  0  0
   -2.6135    0.3732   -0.4848 C   0  0  0  0  0  0  0  0  0  0  0  0
   -3.2224   -0.6080   -0.0888 O   0  0  0  0  0  0  0  0  0  0  0  0
   -1.2700    0.5034   -0.5903 O   0  0  0  0  0  0  0  0  0  0  0  0
   -0.4882   -0.6831   -0.3305 C   0  0  0  0  0  0  0  0  0  0  0  0
    0.0878   -1.1617   -1.6737 C   0  0  0  0  0  0  0  0  0  0  0  0
    1.2453   -2.1562   -1.4362 C   0  0  0  0  0  0  0  0  0  0  0  0
    2.2989   -1.5567   -0.6588 O   0  0  0  0  0  0  0  0  0  0  0  0
    1.9261   -0.7877    0.4076 C   0  0  0  0  0  0  0  0  0  0  0  0
    0.6215   -0.3311    0.6298 C   0  0  0  0  0  0  0  0  0  0  0  0
    0.3490    0.4270    1.7863 C   0  0  0  0  0  0  0  0  0  0  0  0
    1.3703    0.7549    2.6803 C   0  0  0  0  0  0  0  0  0  0  0  0
    1.1268    1.5425    3.8772 C   0  0  0  0  0  0  0  0  0  0  0  0
    2.1456    1.8282    4.6936 C   0  0  0  0  0  0  0  0  0  0  0  0
    3.5228    1.3740    4.4300 C   0  0  0  0  0  0  0  0  0  0  0  0
    4.4324    1.6589    5.2005 O   0  0  0  0  0  0  0  0  0  0  0  0
    3.7279    0.6202    3.2826 O   0  0  0  0  0  0  0  0  0  0  0  0
    2.6621    0.3124    2.4148 C   0  0  0  0  0  0  0  0  0  0  0  0
    2.9525   -0.4538    1.2906 C   0  0  0  0  0  0  0  0  0  0  0  0
    0.8022   -3.4653   -0.7603 C   0  0  0  0  0  0  0  0  0  0  0  0
    1.8954   -2.5215   -2.7826 C   0  0  0  0  0  0  0  0  0  0  0  0
   -0.9567   -1.7362   -2.4704 O   0  0  0  0  0  0  0  0  0  0  0  0
   -1.0183    2.7877   -2.6940 H   0  0  0  0  0  0  0  0  0  0  0  0
   -1.6695    1.1545   -2.9868 H   0  0  0  0  0  0  0  0  0  0  0  0
   -2.3309    2.5290   -3.8557 H   0  0  0  0  0  0  0  0  0  0  0  0
   -3.4814    3.4087   -1.9400 H   0  0  0  0  0  0  0  0  0  0  0  0
   -4.8188    3.0014   -0.0514 H   0  0  0  0  0  0  0  0  0  0  0  0
   -4.0247    2.0275    1.1899 H   0  0  0  0  0  0  0  0  0  0  0  0
   -5.2009    1.2812    0.0846 H   0  0  0  0  0  0  0  0  0  0  0  0
   -1.0980   -1.4732    0.1242 H   0  0  0  0  0  0  0  0  0  0  0  0
    0.4603   -0.2836   -2.2202 H   0  0  0  0  0  0  0  0  0  0  0  0
   -0.6684    0.7626    1.9791 H   0  0  0  0  0  0  0  0  0  0  0  0
    0.1212    1.8870    4.0911 H   0  0  0  0  0  0  0  0  0  0  0  0
    2.0083    2.4118    5.5957 H   0  0  0  0  0  0  0  0  0  0  0  0
    3.9668   -0.7968    1.1083 H   0  0  0  0  0  0  0  0  0  0  0  0
    0.4042   -3.2943    0.2449 H   0  0  0  0  0  0  0  0  0  0  0  0
    1.6568   -4.1400   -0.6314 H   0  0  0  0  0  0  0  0  0  0  0  0
    0.0393   -3.9866   -1.3474 H   0  0  0  0  0  0  0  0  0  0  0  0
    2.7818   -3.1488   -2.6298 H   0  0  0  0  0  0  0  0  0  0  0  0
    1.2068   -3.0587   -3.4424 H   0  0  0  0  0  0  0  0  0  0  0  0
    2.2440   -1.6213   -3.3019 H   0  0  0  0  0  0  0  0  0  0  0  0
   -0.6551   -1.7491   -3.3949 H   0  0  0  0  0  0  0  0  0  0  0  0
  1  2  1  0
  2  3  2  3
  3  4  1  0
  3  5  1  0
  5  6  2  0
  5  7  1  0
  7  8  1  0
  8  9  1  0
  9 10  1  0
 10 11  1  0
 11 12  1  0
 12 13  2  0
 13 14  1  0
 14 15  2  0
 15 16  1  0
 16 17  2  0
 17 18  1  0
 18 19  2  0
 18 20  1  0
 20 21  1  0
 21 22  2  0
 10 23  1  0
 10 24  1  0
  9 25  1  0
 13  8  1  0
 22 12  1  0
 21 15  1  0
  1 26  1  0
  1 27  1  0
  1 28  1  0
  2 29  1  0
  4 30  1  0
  4 31  1  0
  4 32  1  0
  8 33  1  0
  9 34  1  0
 14 35  1  0
 16 36  1  0
 17 37  1  0
 22 38  1  0
 23 39  1  0
 23 40  1  0
 23 41  1  0
 24 42  1  0
 24 43  1  0
 24 44  1  0
 25 45  1  0
M  END
>  <Name>  (185) 
Decursitin D

>  <PubChem ID>  (185) 
122169319

>  <CDB ID>  (185) 
CDB0185

>  <Smiles>  (185) 
CC=C(C)C(=O)OC1C(C(OC2=C1C=C3C=CC(=O)OC3=C2)(C)C)O

>  <Chemical class>  (185) 
7-Oxygenated Coumarins

>  <Natural source>  (185) 
Peucedanum decursivum

>  <Molecular Formula>  (185) 
C19H20O6

>  <InChI-Key>  (185) 
AESJNSAMTDSWJU-UHFFFAOYSA-N

>  <Total Molweight>  (185) 
344.362

>  <cLogP>  (185) 
2.8574

>  <cLogS>  (185) 
-3.393

>  <H-Acceptors>  (185) 
6

>  <H-Donors>  (185) 
1

>  <Rotatable Bonds>  (185) 
3

>  <Polar Surface Area>  (185) 
82.06

$$$$
CDB0186
     RDKit          3D

 45 47  0  0  0  0  0  0  0  0999 V2000
   -5.2346    1.0095   -0.7525 C   0  0  0  0  0  0  0  0  0  0  0  0
   -4.4732    0.5186    0.4488 C   0  0  0  0  0  0  0  0  0  0  0  0
   -3.1657    0.1941    0.4804 C   0  0  0  0  0  0  0  0  0  0  0  0
   -2.2242    0.2029   -0.6641 C   0  0  0  0  0  0  0  0  0  0  0  0
   -2.5070    0.3165   -1.8429 O   0  0  0  0  0  0  0  0  0  0  0  0
   -0.9736    0.0347   -0.1656 O   0  0  0  0  0  0  0  0  0  0  0  0
    0.0731    0.0361   -1.1534 C   0  0  0  0  0  0  0  0  0  0  0  0
    0.1580   -1.3123   -1.8937 C   0  0  0  0  0  0  0  0  0  0  0  0
    0.9706   -2.3577   -1.0883 C   0  0  0  0  0  0  0  0  0  0  0  0
    2.2774   -1.8792   -0.7200 O   0  0  0  0  0  0  0  0  0  0  0  0
    2.3646   -0.5917   -0.2759 C   0  0  0  0  0  0  0  0  0  0  0  0
    1.3579    0.3651   -0.4356 C   0  0  0  0  0  0  0  0  0  0  0  0
    1.5548    1.6633    0.0785 C   0  0  0  0  0  0  0  0  0  0  0  0
    2.7458    1.9993    0.7251 C   0  0  0  0  0  0  0  0  0  0  0  0
    2.9854    3.3277    1.2637 C   0  0  0  0  0  0  0  0  0  0  0  0
    4.1473    3.5902    1.8699 C   0  0  0  0  0  0  0  0  0  0  0  0
    5.2092    2.5789    2.0187 C   0  0  0  0  0  0  0  0  0  0  0  0
    6.2600    2.8570    2.5851 O   0  0  0  0  0  0  0  0  0  0  0  0
    4.9564    1.3194    1.4937 O   0  0  0  0  0  0  0  0  0  0  0  0
    3.7360    1.0305    0.8525 C   0  0  0  0  0  0  0  0  0  0  0  0
    3.5614   -0.2578    0.3576 C   0  0  0  0  0  0  0  0  0  0  0  0
    0.2400   -2.8122    0.1886 C   0  0  0  0  0  0  0  0  0  0  0  0
    1.2239   -3.6053   -1.9541 C   0  0  0  0  0  0  0  0  0  0  0  0
    0.7462   -1.1056   -3.1921 O   0  0  0  0  0  0  0  0  0  0  0  0
   -5.3085    0.4081    1.6988 C   0  0  0  0  0  0  0  0  0  0  0  0
   -5.8941    0.2204   -1.1276 H   0  0  0  0  0  0  0  0  0  0  0  0
   -5.8543    1.8706   -0.4780 H   0  0  0  0  0  0  0  0  0  0  0  0
   -4.5963    1.3443   -1.5713 H   0  0  0  0  0  0  0  0  0  0  0  0
   -2.7179   -0.1290    1.4169 H   0  0  0  0  0  0  0  0  0  0  0  0
   -0.1034    0.8436   -1.8785 H   0  0  0  0  0  0  0  0  0  0  0  0
   -0.8434   -1.7186   -2.0786 H   0  0  0  0  0  0  0  0  0  0  0  0
    0.7696    2.4080   -0.0373 H   0  0  0  0  0  0  0  0  0  0  0  0
    2.2188    4.0880    1.1652 H   0  0  0  0  0  0  0  0  0  0  0  0
    4.3676    4.5662    2.2846 H   0  0  0  0  0  0  0  0  0  0  0  0
    4.3468   -0.9998    0.4683 H   0  0  0  0  0  0  0  0  0  0  0  0
    0.8054   -3.6030    0.6960 H   0  0  0  0  0  0  0  0  0  0  0  0
   -0.7598   -3.1966   -0.0383 H   0  0  0  0  0  0  0  0  0  0  0  0
    0.1434   -2.0056    0.9214 H   0  0  0  0  0  0  0  0  0  0  0  0
    1.7742   -4.3673   -1.3893 H   0  0  0  0  0  0  0  0  0  0  0  0
    1.8492   -3.3687   -2.8224 H   0  0  0  0  0  0  0  0  0  0  0  0
    0.2865   -4.0477   -2.3069 H   0  0  0  0  0  0  0  0  0  0  0  0
    0.1161   -0.5770   -3.7145 H   0  0  0  0  0  0  0  0  0  0  0  0
   -4.7349    0.0290    2.5513 H   0  0  0  0  0  0  0  0  0  0  0  0
   -5.7078    1.3889    1.9772 H   0  0  0  0  0  0  0  0  0  0  0  0
   -6.1474   -0.2760    1.5335 H   0  0  0  0  0  0  0  0  0  0  0  0
  1  2  1  0
  2  3  2  3
  3  4  1  0
  4  5  2  0
  4  6  1  0
  6  7  1  0
  7  8  1  0
  8  9  1  0
  9 10  1  0
 10 11  1  0
 11 12  2  0
 12 13  1  0
 13 14  2  0
 14 15  1  0
 15 16  2  0
 16 17  1  0
 17 18  2  0
 17 19  1  0
 19 20  1  0
 20 21  2  0
  9 22  1  0
  9 23  1  0
  8 24  1  0
  2 25  1  0
 12  7  1  0
 21 11  1  0
 20 14  1  0
  1 26  1  0
  1 27  1  0
  1 28  1  0
  3 29  1  0
  7 30  1  0
  8 31  1  0
 13 32  1  0
 15 33  1  0
 16 34  1  0
 21 35  1  0
 22 36  1  0
 22 37  1  0
 22 38  1  0
 23 39  1  0
 23 40  1  0
 23 41  1  0
 24 42  1  0
 25 43  1  0
 25 44  1  0
 25 45  1  0
M  END
>  <Name>  (186) 
Pd-C-Ii

>  <PubChem ID>  (186) 
122169320

>  <CDB ID>  (186) 
CDB0186

>  <Smiles>  (186) 
CC(=CC(=O)OC1C(C(OC2=C1C=C3C=CC(=O)OC3=C2)(C)C)O)C

>  <Chemical class>  (186) 
7-Oxygenated Coumarins

>  <Natural source>  (186) 
Peucedanum decursivum

>  <Molecular Formula>  (186) 
C19H20O6

>  <InChI-Key>  (186) 
ZXBLITQYGGJILQ-UHFFFAOYSA-N

>  <Total Molweight>  (186) 
344.362

>  <cLogP>  (186) 
2.8574

>  <cLogS>  (186) 
-3.393

>  <H-Acceptors>  (186) 
6

>  <H-Donors>  (186) 
1

>  <Rotatable Bonds>  (186) 
3

>  <Polar Surface Area>  (186) 
82.06

$$$$
CDB0187
     RDKit          3D

 57 59  0  0  0  0  0  0  0  0999 V2000
   -2.1036   -4.5790   -2.9262 C   0  0  0  0  0  0  0  0  0  0  0  0
   -1.3332   -3.3589   -2.5354 C   0  0  0  0  0  0  0  0  0  0  0  0
   -1.4477   -2.6370   -1.4020 C   0  0  0  0  0  0  0  0  0  0  0  0
   -2.3664   -2.9374   -0.2553 C   0  0  0  0  0  0  0  0  0  0  0  0
   -0.5478   -1.4484   -1.2740 C   0  0  0  0  0  0  0  0  0  0  0  0
    0.3991   -1.2132   -2.0094 O   0  0  0  0  0  0  0  0  0  0  0  0
   -0.9528   -0.6700   -0.2426 O   0  0  0  0  0  0  0  0  0  0  0  0
   -0.1645    0.5081    0.0314 C   0  0  0  0  0  0  0  0  0  0  0  0
    0.7756    0.2202    1.2157 C   0  0  0  0  0  0  0  0  0  0  0  0
    1.2615    1.5428    1.8497 C   0  0  0  0  0  0  0  0  0  0  0  0
    0.1582    2.3479    2.3030 O   0  0  0  0  0  0  0  0  0  0  0  0
   -0.9068    2.4635    1.4559 C   0  0  0  0  0  0  0  0  0  0  0  0
   -1.1251    1.6285    0.3547 C   0  0  0  0  0  0  0  0  0  0  0  0
   -2.2416    1.8676   -0.4728 C   0  0  0  0  0  0  0  0  0  0  0  0
   -3.1401    2.8956   -0.1796 C   0  0  0  0  0  0  0  0  0  0  0  0
   -4.3065    3.1619   -1.0046 C   0  0  0  0  0  0  0  0  0  0  0  0
   -5.1328    4.1580   -0.6711 C   0  0  0  0  0  0  0  0  0  0  0  0
   -4.9101    5.0093    0.5113 C   0  0  0  0  0  0  0  0  0  0  0  0
   -5.6902    5.9141    0.7850 O   0  0  0  0  0  0  0  0  0  0  0  0
   -3.7884    4.7348    1.2817 O   0  0  0  0  0  0  0  0  0  0  0  0
   -2.9106    3.6878    0.9405 C   0  0  0  0  0  0  0  0  0  0  0  0
   -1.8067    3.4839    1.7617 C   0  0  0  0  0  0  0  0  0  0  0  0
    2.0804    1.2271    3.1150 C   0  0  0  0  0  0  0  0  0  0  0  0
    2.1507    2.3872    0.9177 C   0  0  0  0  0  0  0  0  0  0  0  0
    1.9318   -0.5270    0.7701 O   0  0  0  0  0  0  0  0  0  0  0  0
    1.8777   -1.8712    0.8843 C   0  0  0  0  0  0  0  0  0  0  0  0
    0.9492   -2.5169    1.3466 O   0  0  0  0  0  0  0  0  0  0  0  0
    3.1435   -2.5116    0.4660 C   0  0  0  0  0  0  0  0  0  0  0  0
    4.0633   -2.0913   -0.4253 C   0  0  0  0  0  0  0  0  0  0  0  0
    3.9707   -0.8553   -1.2777 C   0  0  0  0  0  0  0  0  0  0  0  0
    5.3094   -2.9056   -0.6611 C   0  0  0  0  0  0  0  0  0  0  0  0
   -2.9160   -4.8243   -2.2397 H   0  0  0  0  0  0  0  0  0  0  0  0
   -1.4302   -5.4397   -2.9832 H   0  0  0  0  0  0  0  0  0  0  0  0
   -2.5468   -4.4286   -3.9159 H   0  0  0  0  0  0  0  0  0  0  0  0
   -0.6054   -3.0463   -3.2860 H   0  0  0  0  0  0  0  0  0  0  0  0
   -2.8480   -3.9144   -0.3362 H   0  0  0  0  0  0  0  0  0  0  0  0
   -3.1569   -2.1822   -0.1924 H   0  0  0  0  0  0  0  0  0  0  0  0
   -1.8142   -2.9433    0.6906 H   0  0  0  0  0  0  0  0  0  0  0  0
    0.4132    0.8081   -0.8521 H   0  0  0  0  0  0  0  0  0  0  0  0
    0.2235   -0.3475    1.9787 H   0  0  0  0  0  0  0  0  0  0  0  0
   -2.4071    1.2365   -1.3444 H   0  0  0  0  0  0  0  0  0  0  0  0
   -4.4906    2.5478   -1.8792 H   0  0  0  0  0  0  0  0  0  0  0  0
   -6.0134    4.3902   -1.2575 H   0  0  0  0  0  0  0  0  0  0  0  0
   -1.6420    4.1198    2.6267 H   0  0  0  0  0  0  0  0  0  0  0  0
    2.3761    2.1497    3.6284 H   0  0  0  0  0  0  0  0  0  0  0  0
    2.9858    0.6548    2.8889 H   0  0  0  0  0  0  0  0  0  0  0  0
    1.4798    0.6567    3.8332 H   0  0  0  0  0  0  0  0  0  0  0  0
    3.0549    1.8479    0.6177 H   0  0  0  0  0  0  0  0  0  0  0  0
    2.4554    3.3155    1.4153 H   0  0  0  0  0  0  0  0  0  0  0  0
    1.6201    2.6942    0.0109 H   0  0  0  0  0  0  0  0  0  0  0  0
    3.2877   -3.4626    0.9735 H   0  0  0  0  0  0  0  0  0  0  0  0
    2.9560   -0.4631   -1.3654 H   0  0  0  0  0  0  0  0  0  0  0  0
    4.2978   -1.0759   -2.3000 H   0  0  0  0  0  0  0  0  0  0  0  0
    4.6174   -0.0698   -0.8745 H   0  0  0  0  0  0  0  0  0  0  0  0
    5.3596   -3.7883   -0.0147 H   0  0  0  0  0  0  0  0  0  0  0  0
    5.3474   -3.2516   -1.6993 H   0  0  0  0  0  0  0  0  0  0  0  0
    6.1994   -2.2993   -0.4626 H   0  0  0  0  0  0  0  0  0  0  0  0
  1  2  1  0
  2  3  2  3
  3  4  1  0
  3  5  1  0
  5  6  2  0
  5  7  1  0
  7  8  1  0
  8  9  1  0
  9 10  1  0
 10 11  1  0
 11 12  1  0
 12 13  2  0
 13 14  1  0
 14 15  2  0
 15 16  1  0
 16 17  2  0
 17 18  1  0
 18 19  2  0
 18 20  1  0
 20 21  1  0
 21 22  2  0
 10 23  1  0
 10 24  1  0
  9 25  1  0
 25 26  1  0
 26 27  2  0
 26 28  1  0
 28 29  2  3
 29 30  1  0
 29 31  1  0
 13  8  1  0
 22 12  1  0
 21 15  1  0
  1 32  1  0
  1 33  1  0
  1 34  1  0
  2 35  1  0
  4 36  1  0
  4 37  1  0
  4 38  1  0
  8 39  1  0
  9 40  1  0
 14 41  1  0
 16 42  1  0
 17 43  1  0
 22 44  1  0
 23 45  1  0
 23 46  1  0
 23 47  1  0
 24 48  1  0
 24 49  1  0
 24 50  1  0
 28 51  1  0
 30 52  1  0
 30 53  1  0
 30 54  1  0
 31 55  1  0
 31 56  1  0
 31 57  1  0
M  END
>  <Name>  (187) 
Decursitin B

>  <PubChem ID>  (187) 
21581509

>  <CDB ID>  (187) 
CDB0187

>  <Smiles>  (187) 
CC=C(C)C(=O)OC1C(C(OC2=C1C=C3C=CC(=O)OC3=C2)(C)C)OC(=O)C=C(C)C

>  <Chemical class>  (187) 
7-Oxygenated Coumarins

>  <Natural source>  (187) 
Peucedanum decursivum

>  <Molecular Formula>  (187) 
C24H26O7

>  <InChI-Key>  (187) 
MUBXKIDUHCCWJE-UHFFFAOYSA-N

>  <Total Molweight>  (187) 
426.463

>  <cLogP>  (187) 
4.605

>  <cLogS>  (187) 
-4.239

>  <H-Acceptors>  (187) 
7

>  <H-Donors>  (187) 
0

>  <Rotatable Bonds>  (187) 
6

>  <Polar Surface Area>  (187) 
88.13

$$$$
CDB0188
     RDKit          3D

 57 59  0  0  0  0  0  0  0  0999 V2000
   -2.1036   -4.5790   -2.9262 C   0  0  0  0  0  0  0  0  0  0  0  0
   -1.3332   -3.3589   -2.5354 C   0  0  0  0  0  0  0  0  0  0  0  0
   -1.4477   -2.6370   -1.4020 C   0  0  0  0  0  0  0  0  0  0  0  0
   -2.3664   -2.9374   -0.2553 C   0  0  0  0  0  0  0  0  0  0  0  0
   -0.5478   -1.4484   -1.2740 C   0  0  0  0  0  0  0  0  0  0  0  0
    0.3991   -1.2132   -2.0094 O   0  0  0  0  0  0  0  0  0  0  0  0
   -0.9528   -0.6700   -0.2426 O   0  0  0  0  0  0  0  0  0  0  0  0
   -0.1645    0.5081    0.0314 C   0  0  0  0  0  0  0  0  0  0  0  0
    0.7756    0.2202    1.2157 C   0  0  0  0  0  0  0  0  0  0  0  0
    1.2615    1.5428    1.8497 C   0  0  0  0  0  0  0  0  0  0  0  0
    0.1582    2.3479    2.3030 O   0  0  0  0  0  0  0  0  0  0  0  0
   -0.9068    2.4635    1.4559 C   0  0  0  0  0  0  0  0  0  0  0  0
   -1.1251    1.6285    0.3547 C   0  0  0  0  0  0  0  0  0  0  0  0
   -2.2416    1.8676   -0.4728 C   0  0  0  0  0  0  0  0  0  0  0  0
   -3.1401    2.8956   -0.1796 C   0  0  0  0  0  0  0  0  0  0  0  0
   -4.3065    3.1619   -1.0046 C   0  0  0  0  0  0  0  0  0  0  0  0
   -5.1328    4.1580   -0.6711 C   0  0  0  0  0  0  0  0  0  0  0  0
   -4.9101    5.0093    0.5113 C   0  0  0  0  0  0  0  0  0  0  0  0
   -5.6902    5.9141    0.7850 O   0  0  0  0  0  0  0  0  0  0  0  0
   -3.7884    4.7348    1.2817 O   0  0  0  0  0  0  0  0  0  0  0  0
   -2.9106    3.6878    0.9405 C   0  0  0  0  0  0  0  0  0  0  0  0
   -1.8067    3.4839    1.7617 C   0  0  0  0  0  0  0  0  0  0  0  0
    2.0804    1.2271    3.1150 C   0  0  0  0  0  0  0  0  0  0  0  0
    2.1507    2.3872    0.9177 C   0  0  0  0  0  0  0  0  0  0  0  0
    1.9318   -0.5270    0.7701 O   0  0  0  0  0  0  0  0  0  0  0  0
    1.8777   -1.8712    0.8843 C   0  0  0  0  0  0  0  0  0  0  0  0
    0.9492   -2.5169    1.3466 O   0  0  0  0  0  0  0  0  0  0  0  0
    3.1435   -2.5116    0.4660 C   0  0  0  0  0  0  0  0  0  0  0  0
    4.0633   -2.0913   -0.4253 C   0  0  0  0  0  0  0  0  0  0  0  0
    3.9707   -0.8553   -1.2777 C   0  0  0  0  0  0  0  0  0  0  0  0
    5.3094   -2.9056   -0.6611 C   0  0  0  0  0  0  0  0  0  0  0  0
   -2.9160   -4.8243   -2.2397 H   0  0  0  0  0  0  0  0  0  0  0  0
   -1.4302   -5.4397   -2.9832 H   0  0  0  0  0  0  0  0  0  0  0  0
   -2.5468   -4.4286   -3.9159 H   0  0  0  0  0  0  0  0  0  0  0  0
   -0.6054   -3.0463   -3.2860 H   0  0  0  0  0  0  0  0  0  0  0  0
   -2.8480   -3.9144   -0.3362 H   0  0  0  0  0  0  0  0  0  0  0  0
   -3.1569   -2.1822   -0.1924 H   0  0  0  0  0  0  0  0  0  0  0  0
   -1.8142   -2.9433    0.6906 H   0  0  0  0  0  0  0  0  0  0  0  0
    0.4132    0.8081   -0.8521 H   0  0  0  0  0  0  0  0  0  0  0  0
    0.2235   -0.3475    1.9787 H   0  0  0  0  0  0  0  0  0  0  0  0
   -2.4071    1.2365   -1.3444 H   0  0  0  0  0  0  0  0  0  0  0  0
   -4.4906    2.5478   -1.8792 H   0  0  0  0  0  0  0  0  0  0  0  0
   -6.0134    4.3902   -1.2575 H   0  0  0  0  0  0  0  0  0  0  0  0
   -1.6420    4.1198    2.6267 H   0  0  0  0  0  0  0  0  0  0  0  0
    2.3761    2.1497    3.6284 H   0  0  0  0  0  0  0  0  0  0  0  0
    2.9858    0.6548    2.8889 H   0  0  0  0  0  0  0  0  0  0  0  0
    1.4798    0.6567    3.8332 H   0  0  0  0  0  0  0  0  0  0  0  0
    3.0549    1.8479    0.6177 H   0  0  0  0  0  0  0  0  0  0  0  0
    2.4554    3.3155    1.4153 H   0  0  0  0  0  0  0  0  0  0  0  0
    1.6201    2.6942    0.0109 H   0  0  0  0  0  0  0  0  0  0  0  0
    3.2877   -3.4626    0.9735 H   0  0  0  0  0  0  0  0  0  0  0  0
    2.9560   -0.4631   -1.3654 H   0  0  0  0  0  0  0  0  0  0  0  0
    4.2978   -1.0759   -2.3000 H   0  0  0  0  0  0  0  0  0  0  0  0
    4.6174   -0.0698   -0.8745 H   0  0  0  0  0  0  0  0  0  0  0  0
    5.3596   -3.7883   -0.0147 H   0  0  0  0  0  0  0  0  0  0  0  0
    5.3474   -3.2516   -1.6993 H   0  0  0  0  0  0  0  0  0  0  0  0
    6.1994   -2.2993   -0.4626 H   0  0  0  0  0  0  0  0  0  0  0  0
  1  2  1  0
  2  3  2  3
  3  4  1  0
  3  5  1  0
  5  6  2  0
  5  7  1  0
  7  8  1  0
  8  9  1  0
  9 10  1  0
 10 11  1  0
 11 12  1  0
 12 13  2  0
 13 14  1  0
 14 15  2  0
 15 16  1  0
 16 17  2  0
 17 18  1  0
 18 19  2  0
 18 20  1  0
 20 21  1  0
 21 22  2  0
 10 23  1  0
 10 24  1  0
  9 25  1  0
 25 26  1  0
 26 27  2  0
 26 28  1  0
 28 29  2  3
 29 30  1  0
 29 31  1  0
 13  8  1  0
 22 12  1  0
 21 15  1  0
  1 32  1  0
  1 33  1  0
  1 34  1  0
  2 35  1  0
  4 36  1  0
  4 37  1  0
  4 38  1  0
  8 39  1  0
  9 40  1  0
 14 41  1  0
 16 42  1  0
 17 43  1  0
 22 44  1  0
 23 45  1  0
 23 46  1  0
 23 47  1  0
 24 48  1  0
 24 49  1  0
 24 50  1  0
 28 51  1  0
 30 52  1  0
 30 53  1  0
 30 54  1  0
 31 55  1  0
 31 56  1  0
 31 57  1  0
M  END
>  <Name>  (188) 
Andelin

>  <PubChem ID>  (188) 
101306694

>  <CDB ID>  (188) 
CDB0188

>  <Smiles>  (188) 
CC=C(C)C(=O)OC1C(C(OC2=C1C=C3C=CC(=O)OC3=C2)(C)C)OC(=O)C=C(C)C

>  <Chemical class>  (188) 
7-Oxygenated Coumarins

>  <Natural source>  (188) 
Angelica decursiva

>  <Molecular Formula>  (188) 
C24H26O7

>  <InChI-Key>  (188) 
MUBXKIDUHCCWJE-UHFFFAOYSA-N

>  <Total Molweight>  (188) 
426.463

>  <cLogP>  (188) 
4.605

>  <cLogS>  (188) 
-4.239

>  <H-Acceptors>  (188) 
7

>  <H-Donors>  (188) 
0

>  <Rotatable Bonds>  (188) 
6

>  <Polar Surface Area>  (188) 
88.13

$$$$
CDB0189
     RDKit          3D

 57 59  0  0  0  0  0  0  0  0999 V2000
   -4.3797   -2.9846    1.1025 C   0  0  0  0  0  0  0  0  0  0  0  0
   -3.1055   -2.7075    1.8525 C   0  0  0  0  0  0  0  0  0  0  0  0
   -2.0847   -1.9477    1.4105 C   0  0  0  0  0  0  0  0  0  0  0  0
   -1.9906   -1.2962    0.0838 C   0  0  0  0  0  0  0  0  0  0  0  0
   -2.6046   -1.6053   -0.9223 O   0  0  0  0  0  0  0  0  0  0  0  0
   -1.0945   -0.2797    0.1882 O   0  0  0  0  0  0  0  0  0  0  0  0
   -0.8336    0.4085   -1.0481 C   0  0  0  0  0  0  0  0  0  0  0  0
    0.2339   -0.3338   -1.8720 C   0  0  0  0  0  0  0  0  0  0  0  0
    0.6239    0.5215   -3.1005 C   0  0  0  0  0  0  0  0  0  0  0  0
    1.0956    1.8344   -2.7336 O   0  0  0  0  0  0  0  0  0  0  0  0
    0.5394    2.4377   -1.6401 C   0  0  0  0  0  0  0  0  0  0  0  0
   -0.3746    1.8224   -0.7738 C   0  0  0  0  0  0  0  0  0  0  0  0
   -0.8978    2.5576    0.3082 C   0  0  0  0  0  0  0  0  0  0  0  0
   -0.4867    3.8719    0.5396 C   0  0  0  0  0  0  0  0  0  0  0  0
   -0.9965    4.6566    1.6517 C   0  0  0  0  0  0  0  0  0  0  0  0
   -0.5645    5.9096    1.8239 C   0  0  0  0  0  0  0  0  0  0  0  0
    0.4187    6.5387    0.9241 C   0  0  0  0  0  0  0  0  0  0  0  0
    0.7932    7.6898    1.1159 O   0  0  0  0  0  0  0  0  0  0  0  0
    0.8871    5.7696   -0.1321 O   0  0  0  0  0  0  0  0  0  0  0  0
    0.4395    4.4480   -0.3240 C   0  0  0  0  0  0  0  0  0  0  0  0
    0.9558    3.7486   -1.4101 C   0  0  0  0  0  0  0  0  0  0  0  0
    1.7948   -0.1399   -3.8495 C   0  0  0  0  0  0  0  0  0  0  0  0
   -0.5392    0.6918   -4.0925 C   0  0  0  0  0  0  0  0  0  0  0  0
    1.4266   -0.5387   -1.0596 O   0  0  0  0  0  0  0  0  0  0  0  0
    1.5248   -1.7077   -0.3842 C   0  0  0  0  0  0  0  0  0  0  0  0
    0.7302   -2.6290   -0.4186 O   0  0  0  0  0  0  0  0  0  0  0  0
    2.7806   -1.6591    0.4013 C   0  0  0  0  0  0  0  0  0  0  0  0
    3.1189   -2.4764    1.4179 C   0  0  0  0  0  0  0  0  0  0  0  0
    2.2580   -3.5676    1.9938 C   0  0  0  0  0  0  0  0  0  0  0  0
    4.4615   -2.3337    2.0868 C   0  0  0  0  0  0  0  0  0  0  0  0
   -3.0294   -3.3640    3.2059 C   0  0  0  0  0  0  0  0  0  0  0  0
   -4.5509   -2.3029    0.2672 H   0  0  0  0  0  0  0  0  0  0  0  0
   -4.3763   -4.0101    0.7200 H   0  0  0  0  0  0  0  0  0  0  0  0
   -5.2411   -2.8713    1.7703 H   0  0  0  0  0  0  0  0  0  0  0  0
   -1.2107   -1.7941    2.0371 H   0  0  0  0  0  0  0  0  0  0  0  0
   -1.7670    0.5020   -1.6180 H   0  0  0  0  0  0  0  0  0  0  0  0
   -0.1468   -1.3066   -2.2072 H   0  0  0  0  0  0  0  0  0  0  0  0
   -1.6260    2.0940    0.9711 H   0  0  0  0  0  0  0  0  0  0  0  0
   -1.7204    4.2139    2.3268 H   0  0  0  0  0  0  0  0  0  0  0  0
   -0.9180    6.5287    2.6394 H   0  0  0  0  0  0  0  0  0  0  0  0
    1.6736    4.2203   -2.0749 H   0  0  0  0  0  0  0  0  0  0  0  0
    2.0670    0.4409   -4.7389 H   0  0  0  0  0  0  0  0  0  0  0  0
    2.6976   -0.1759   -3.2294 H   0  0  0  0  0  0  0  0  0  0  0  0
    1.5460   -1.1583   -4.1653 H   0  0  0  0  0  0  0  0  0  0  0  0
   -0.9428   -0.2766   -4.4057 H   0  0  0  0  0  0  0  0  0  0  0  0
   -0.2084    1.2324   -4.9873 H   0  0  0  0  0  0  0  0  0  0  0  0
   -1.3540    1.2904   -3.6736 H   0  0  0  0  0  0  0  0  0  0  0  0
    3.4706   -0.8827    0.0811 H   0  0  0  0  0  0  0  0  0  0  0  0
    2.6189   -4.5464    1.6626 H   0  0  0  0  0  0  0  0  0  0  0  0
    1.2029   -3.4778    1.7296 H   0  0  0  0  0  0  0  0  0  0  0  0
    2.2992   -3.5408    3.0885 H   0  0  0  0  0  0  0  0  0  0  0  0
    4.3344   -2.0844    3.1454 H   0  0  0  0  0  0  0  0  0  0  0  0
    5.0725   -1.5471    1.6314 H   0  0  0  0  0  0  0  0  0  0  0  0
    5.0214   -3.2719    2.0142 H   0  0  0  0  0  0  0  0  0  0  0  0
   -2.0808   -3.1609    3.7142 H   0  0  0  0  0  0  0  0  0  0  0  0
   -3.1255   -4.4501    3.1052 H   0  0  0  0  0  0  0  0  0  0  0  0
   -3.8363   -3.0007    3.8507 H   0  0  0  0  0  0  0  0  0  0  0  0
  1  2  1  0
  2  3  2  3
  3  4  1  0
  4  5  2  0
  4  6  1  0
  6  7  1  0
  7  8  1  0
  8  9  1  0
  9 10  1  0
 10 11  1  0
 11 12  2  0
 12 13  1  0
 13 14  2  0
 14 15  1  0
 15 16  2  0
 16 17  1  0
 17 18  2  0
 17 19  1  0
 19 20  1  0
 20 21  2  0
  9 22  1  0
  9 23  1  0
  8 24  1  0
 24 25  1  0
 25 26  2  0
 25 27  1  0
 27 28  2  3
 28 29  1  0
 28 30  1  0
  2 31  1  0
 12  7  1  0
 21 11  1  0
 20 14  1  0
  1 32  1  0
  1 33  1  0
  1 34  1  0
  3 35  1  0
  7 36  1  0
  8 37  1  0
 13 38  1  0
 15 39  1  0
 16 40  1  0
 21 41  1  0
 22 42  1  0
 22 43  1  0
 22 44  1  0
 23 45  1  0
 23 46  1  0
 23 47  1  0
 27 48  1  0
 29 49  1  0
 29 50  1  0
 29 51  1  0
 30 52  1  0
 30 53  1  0
 30 54  1  0
 31 55  1  0
 31 56  1  0
 31 57  1  0
M  END
>  <Name>  (189) 
Decursidin

>  <PubChem ID>  (189) 
15521791

>  <CDB ID>  (189) 
CDB0189

>  <Smiles>  (189) 
CC(=CC(=O)OC1C(C(OC2=C1C=C3C=CC(=O)OC3=C2)(C)C)OC(=O)C=C(C)C)C

>  <Chemical class>  (189) 
7-Oxygenated Coumarins

>  <Natural source>  (189) 
Angelica decursiva

>  <Molecular Formula>  (189) 
C24H26O7

>  <InChI-Key>  (189) 
SYRXQLPUGCYKFH-UHFFFAOYSA-N

>  <Total Molweight>  (189) 
426.463

>  <cLogP>  (189) 
4.605

>  <cLogS>  (189) 
-4.239

>  <H-Acceptors>  (189) 
7

>  <H-Donors>  (189) 
0

>  <Rotatable Bonds>  (189) 
6

>  <Polar Surface Area>  (189) 
88.13

$$$$
CDB0190
     RDKit          3D

 62 67  0  0  0  0  0  0  0  0999 V2000
    3.6504    1.7546   -2.7453 C   0  0  0  0  0  0  0  0  0  0  0  0
    2.5974    1.1536   -1.8581 C   0  0  0  0  0  0  0  0  0  0  0  0
    1.3190    1.5687   -1.8839 C   0  0  0  0  0  0  0  0  0  0  0  0
    0.2162    0.9995   -1.0118 C   0  0  0  0  0  0  0  0  0  0  0  0
    0.7933    0.2088    0.1816 C   0  0  0  0  0  0  0  0  0  0  0  0
    1.9145   -0.7541   -0.2843 C   0  0  0  0  0  0  0  0  0  0  0  0
    3.0608    0.0471   -0.9491 C   0  0  0  0  0  0  0  0  0  0  0  0
    2.5315   -1.6383    0.7921 C   0  0  0  0  0  0  0  0  0  0  0  0
    2.7863   -2.9914    0.5080 C   0  0  0  0  0  0  0  0  0  0  0  0
    3.3681   -3.8277    1.4637 C   0  0  0  0  0  0  0  0  0  0  0  0
    3.7071   -3.3097    2.7076 C   0  0  0  0  0  0  0  0  0  0  0  0
    3.4796   -1.9728    3.0061 C   0  0  0  0  0  0  0  0  0  0  0  0
    2.9012   -1.1363    2.0495 C   0  0  0  0  0  0  0  0  0  0  0  0
    4.2761   -4.0880    3.6711 O   0  0  0  0  0  0  0  0  0  0  0  0
   -0.3558   -0.4198    1.0050 C   0  0  0  0  0  0  0  0  0  0  0  0
   -1.3630    0.5218    1.4118 O   0  0  0  0  0  0  0  0  0  0  0  0
   -1.4956    1.6860    0.7104 C   0  0  0  0  0  0  0  0  0  0  0  0
   -0.7845    2.0042   -0.4592 C   0  0  0  0  0  0  0  0  0  0  0  0
   -1.0995    3.2120   -1.1164 C   0  0  0  0  0  0  0  0  0  0  0  0
   -2.0542    4.0936   -0.5972 C   0  0  0  0  0  0  0  0  0  0  0  0
   -2.3837    5.3487   -1.2532 C   0  0  0  0  0  0  0  0  0  0  0  0
   -3.3078    6.1493   -0.7136 C   0  0  0  0  0  0  0  0  0  0  0  0
   -4.0177    5.8099    0.5325 C   0  0  0  0  0  0  0  0  0  0  0  0
   -4.8603    6.5691    0.9972 O   0  0  0  0  0  0  0  0  0  0  0  0
   -3.6866    4.6053    1.1371 O   0  0  0  0  0  0  0  0  0  0  0  0
   -2.7140    3.7560    0.5769 C   0  0  0  0  0  0  0  0  0  0  0  0
   -2.4501    2.5620    1.2333 C   0  0  0  0  0  0  0  0  0  0  0  0
   -0.9985   -1.7173    0.5191 C   0  0  0  0  0  0  0  0  0  0  0  0
   -1.9705   -1.8032   -0.4901 C   0  0  0  0  0  0  0  0  0  0  0  0
   -2.4747   -3.0439   -0.9036 C   0  0  0  0  0  0  0  0  0  0  0  0
   -2.0630   -4.2075   -0.2710 C   0  0  0  0  0  0  0  0  0  0  0  0
   -1.1464   -4.1572    0.7669 C   0  0  0  0  0  0  0  0  0  0  0  0
   -0.6232   -2.9211    1.1563 C   0  0  0  0  0  0  0  0  0  0  0  0
   -2.5912   -5.3890   -0.6986 O   0  0  0  0  0  0  0  0  0  0  0  0
   -2.4061   -0.6717   -1.1247 O   0  0  0  0  0  0  0  0  0  0  0  0
   -3.7953   -0.4366   -0.8868 C   0  0  0  0  0  0  0  0  0  0  0  0
    4.4618    2.1717   -2.1402 H   0  0  0  0  0  0  0  0  0  0  0  0
    4.0679    0.9919   -3.4104 H   0  0  0  0  0  0  0  0  0  0  0  0
    3.2528    2.5612   -3.3702 H   0  0  0  0  0  0  0  0  0  0  0  0
    1.0466    2.3200   -2.6188 H   0  0  0  0  0  0  0  0  0  0  0  0
   -0.3363    0.3269   -1.6757 H   0  0  0  0  0  0  0  0  0  0  0  0
    1.2596    0.9541    0.8487 H   0  0  0  0  0  0  0  0  0  0  0  0
    1.4761   -1.4091   -1.0516 H   0  0  0  0  0  0  0  0  0  0  0  0
    3.7104    0.4971   -0.1862 H   0  0  0  0  0  0  0  0  0  0  0  0
    3.6880   -0.6515   -1.5191 H   0  0  0  0  0  0  0  0  0  0  0  0
    2.5251   -3.4052   -0.4646 H   0  0  0  0  0  0  0  0  0  0  0  0
    3.5479   -4.8693    1.2181 H   0  0  0  0  0  0  0  0  0  0  0  0
    3.7592   -1.5788    3.9792 H   0  0  0  0  0  0  0  0  0  0  0  0
    2.7508   -0.0887    2.2996 H   0  0  0  0  0  0  0  0  0  0  0  0
    4.4148   -4.9783    3.3091 H   0  0  0  0  0  0  0  0  0  0  0  0
    0.1014   -0.6743    1.9702 H   0  0  0  0  0  0  0  0  0  0  0  0
   -0.6106    3.4769   -2.0487 H   0  0  0  0  0  0  0  0  0  0  0  0
   -1.8736    5.6184   -2.1712 H   0  0  0  0  0  0  0  0  0  0  0  0
   -3.5825    7.0929   -1.1688 H   0  0  0  0  0  0  0  0  0  0  0  0
   -2.9892    2.3040    2.1401 H   0  0  0  0  0  0  0  0  0  0  0  0
   -3.1868   -3.1061   -1.7207 H   0  0  0  0  0  0  0  0  0  0  0  0
   -0.8221   -5.0558    1.2817 H   0  0  0  0  0  0  0  0  0  0  0  0
    0.0939   -2.9057    1.9766 H   0  0  0  0  0  0  0  0  0  0  0  0
   -2.2367   -6.1054   -0.1470 H   0  0  0  0  0  0  0  0  0  0  0  0
   -4.4137   -1.0953   -1.5045 H   0  0  0  0  0  0  0  0  0  0  0  0
   -4.0510   -0.5513    0.1729 H   0  0  0  0  0  0  0  0  0  0  0  0
   -4.0136    0.5954   -1.1779 H   0  0  0  0  0  0  0  0  0  0  0  0
  1  2  1  0
  2  3  2  0
  3  4  1  0
  4  5  1  0
  5  6  1  0
  6  7  1  0
  6  8  1  0
  8  9  1  0
  9 10  2  0
 10 11  1  0
 11 12  2  0
 12 13  1  0
 11 14  1  0
  5 15  1  0
 15 16  1  0
 16 17  1  0
 17 18  2  0
 18 19  1  0
 19 20  2  0
 20 21  1  0
 21 22  2  0
 22 23  1  0
 23 24  2  0
 23 25  1  0
 25 26  1  0
 26 27  2  0
 15 28  1  0
 28 29  2  0
 29 30  1  0
 30 31  2  0
 31 32  1  0
 32 33  2  0
 31 34  1  0
 29 35  1  0
 35 36  1  0
  7  2  1  0
 18  4  1  0
 13  8  2  0
 27 17  1  0
 26 20  1  0
 33 28  1  0
  1 37  1  0
  1 38  1  0
  1 39  1  0
  3 40  1  0
  4 41  1  0
  5 42  1  0
  6 43  1  0
  7 44  1  0
  7 45  1  0
  9 46  1  0
 10 47  1  0
 12 48  1  0
 13 49  1  0
 14 50  1  0
 15 51  1  0
 19 52  1  0
 21 53  1  0
 22 54  1  0
 27 55  1  0
 30 56  1  0
 32 57  1  0
 33 58  1  0
 34 59  1  0
 36 60  1  0
 36 61  1  0
 36 62  1  0
M  END
>  <Name>  (190) 
Palodesangren C

>  <PubChem ID>  (190) 
10696160

>  <CDB ID>  (190) 
CDB0190

>  <Smiles>  (190) 
CC1=CC2C(C(C1)C3=CC=C(C=C3)O)C(OC4=C2C=C5C=CC(=O)OC5=C4)C6=C(C=C(C=C6)O)OC

>  <Chemical class>  (190) 
7-Oxygenated Coumarins

>  <Natural source>  (190) 
Brosimum rubescens

>  <Molecular Formula>  (190) 
C30H26O6

>  <InChI-Key>  (190) 
PRFNZHGCOFIZAC-UHFFFAOYSA-N

>  <Total Molweight>  (190) 
482.53

>  <cLogP>  (190) 
6.0683

>  <cLogS>  (190) 
-5.81

>  <H-Acceptors>  (190) 
6

>  <H-Donors>  (190) 
2

>  <Rotatable Bonds>  (190) 
3

>  <Polar Surface Area>  (190) 
85.22

$$$$
CDB0191
     RDKit          3D

 62 67  0  0  0  0  0  0  0  0999 V2000
    2.3810   -3.1903    2.6297 C   0  0  0  0  0  0  0  0  0  0  0  0
    1.6294   -2.1978    1.7873 C   0  0  0  0  0  0  0  0  0  0  0  0
    0.9062   -2.5762    0.7169 C   0  0  0  0  0  0  0  0  0  0  0  0
    0.1299   -1.6198   -0.1659 C   0  0  0  0  0  0  0  0  0  0  0  0
   -0.1298   -0.2863    0.5750 C   0  0  0  0  0  0  0  0  0  0  0  0
    1.1494    0.2872    1.2472 C   0  0  0  0  0  0  0  0  0  0  0  0
    1.7491   -0.7560    2.2233 C   0  0  0  0  0  0  0  0  0  0  0  0
    2.2127    0.8900    0.3196 C   0  0  0  0  0  0  0  0  0  0  0  0
    2.4868    2.2792    0.3382 C   0  0  0  0  0  0  0  0  0  0  0  0
    3.4441    2.8187   -0.5294 C   0  0  0  0  0  0  0  0  0  0  0  0
    4.1506    1.9910   -1.3926 C   0  0  0  0  0  0  0  0  0  0  0  0
    3.9326    0.6232   -1.4001 C   0  0  0  0  0  0  0  0  0  0  0  0
    2.9758    0.0787   -0.5414 C   0  0  0  0  0  0  0  0  0  0  0  0
    5.0728    2.5685   -2.2148 O   0  0  0  0  0  0  0  0  0  0  0  0
    1.7902    3.0228    1.2552 O   0  0  0  0  0  0  0  0  0  0  0  0
    2.0298    4.4235    1.3004 C   0  0  0  0  0  0  0  0  0  0  0  0
   -0.8736    0.6451   -0.3995 C   0  0  0  0  0  0  0  0  0  0  0  0
   -2.1554    0.0951   -0.7600 O   0  0  0  0  0  0  0  0  0  0  0  0
   -2.2207   -1.2463   -0.9999 C   0  0  0  0  0  0  0  0  0  0  0  0
   -1.1801   -2.1477   -0.7308 C   0  0  0  0  0  0  0  0  0  0  0  0
   -1.3635   -3.4989   -1.0913 C   0  0  0  0  0  0  0  0  0  0  0  0
   -2.5727   -3.9446   -1.6365 C   0  0  0  0  0  0  0  0  0  0  0  0
   -2.7905   -5.3360   -1.9981 C   0  0  0  0  0  0  0  0  0  0  0  0
   -3.9670   -5.7038   -2.5147 C   0  0  0  0  0  0  0  0  0  0  0  0
   -5.0668   -4.7484   -2.7378 C   0  0  0  0  0  0  0  0  0  0  0  0
   -6.1326   -5.1243   -3.2122 O   0  0  0  0  0  0  0  0  0  0  0  0
   -4.8313   -3.4260   -2.3889 O   0  0  0  0  0  0  0  0  0  0  0  0
   -3.5958   -3.0282   -1.8442 C   0  0  0  0  0  0  0  0  0  0  0  0
   -3.4329   -1.6843   -1.5361 C   0  0  0  0  0  0  0  0  0  0  0  0
   -1.2136    2.0293    0.1244 C   0  0  0  0  0  0  0  0  0  0  0  0
   -1.8521    2.2151    1.3623 C   0  0  0  0  0  0  0  0  0  0  0  0
   -2.1864    3.4958    1.8107 C   0  0  0  0  0  0  0  0  0  0  0  0
   -1.8984    4.5971    1.0128 C   0  0  0  0  0  0  0  0  0  0  0  0
   -1.2900    4.4379   -0.2247 C   0  0  0  0  0  0  0  0  0  0  0  0
   -0.9509    3.1586   -0.6694 C   0  0  0  0  0  0  0  0  0  0  0  0
   -2.2043    5.8643    1.4132 O   0  0  0  0  0  0  0  0  0  0  0  0
    2.2471   -4.2179    2.2761 H   0  0  0  0  0  0  0  0  0  0  0  0
    2.0330   -3.1470    3.6668 H   0  0  0  0  0  0  0  0  0  0  0  0
    3.4529   -2.9683    2.6118 H   0  0  0  0  0  0  0  0  0  0  0  0
    0.9141   -3.6284    0.4498 H   0  0  0  0  0  0  0  0  0  0  0  0
    0.7460   -1.4369   -1.0554 H   0  0  0  0  0  0  0  0  0  0  0  0
   -0.8252   -0.5185    1.3997 H   0  0  0  0  0  0  0  0  0  0  0  0
    0.8037    1.0908    1.9080 H   0  0  0  0  0  0  0  0  0  0  0  0
    2.7992   -0.5164    2.4337 H   0  0  0  0  0  0  0  0  0  0  0  0
    1.2161   -0.6716    3.1807 H   0  0  0  0  0  0  0  0  0  0  0  0
    3.6708    3.8788   -0.5494 H   0  0  0  0  0  0  0  0  0  0  0  0
    4.4965   -0.0353   -2.0530 H   0  0  0  0  0  0  0  0  0  0  0  0
    2.8570   -1.0002   -0.5467 H   0  0  0  0  0  0  0  0  0  0  0  0
    5.4891    1.8749   -2.7524 H   0  0  0  0  0  0  0  0  0  0  0  0
    1.3728    4.8502    2.0643 H   0  0  0  0  0  0  0  0  0  0  0  0
    3.0628    4.6352    1.5953 H   0  0  0  0  0  0  0  0  0  0  0  0
    1.7854    4.9011    0.3462 H   0  0  0  0  0  0  0  0  0  0  0  0
   -0.2903    0.7506   -1.3246 H   0  0  0  0  0  0  0  0  0  0  0  0
   -0.5608   -4.2182   -0.9583 H   0  0  0  0  0  0  0  0  0  0  0  0
   -1.9961   -6.0570   -1.8421 H   0  0  0  0  0  0  0  0  0  0  0  0
   -4.1720   -6.7294   -2.7964 H   0  0  0  0  0  0  0  0  0  0  0  0
   -4.2364   -0.9768   -1.7201 H   0  0  0  0  0  0  0  0  0  0  0  0
   -2.1058    1.3588    1.9826 H   0  0  0  0  0  0  0  0  0  0  0  0
   -2.6730    3.6089    2.7738 H   0  0  0  0  0  0  0  0  0  0  0  0
   -1.0786    5.3050   -0.8433 H   0  0  0  0  0  0  0  0  0  0  0  0
   -0.4765    3.0497   -1.6421 H   0  0  0  0  0  0  0  0  0  0  0  0
   -2.6638    5.8119    2.2671 H   0  0  0  0  0  0  0  0  0  0  0  0
  1  2  1  0
  2  3  2  0
  3  4  1  0
  4  5  1  0
  5  6  1  0
  6  7  1  0
  6  8  1  0
  8  9  2  0
  9 10  1  0
 10 11  2  0
 11 12  1  0
 12 13  2  0
 11 14  1  0
  9 15  1  0
 15 16  1  0
  5 17  1  0
 17 18  1  0
 18 19  1  0
 19 20  2  0
 20 21  1  0
 21 22  2  0
 22 23  1  0
 23 24  2  0
 24 25  1  0
 25 26  2  0
 25 27  1  0
 27 28  1  0
 28 29  2  0
 17 30  1  0
 30 31  1  0
 31 32  2  0
 32 33  1  0
 33 34  2  0
 34 35  1  0
 33 36  1  0
  7  2  1  0
 20  4  1  0
 13  8  1  0
 29 19  1  0
 28 22  1  0
 35 30  2  0
  1 37  1  0
  1 38  1  0
  1 39  1  0
  3 40  1  0
  4 41  1  0
  5 42  1  0
  6 43  1  0
  7 44  1  0
  7 45  1  0
 10 46  1  0
 12 47  1  0
 13 48  1  0
 14 49  1  0
 16 50  1  0
 16 51  1  0
 16 52  1  0
 17 53  1  0
 21 54  1  0
 23 55  1  0
 24 56  1  0
 29 57  1  0
 31 58  1  0
 32 59  1  0
 34 60  1  0
 35 61  1  0
 36 62  1  0
M  END
>  <Name>  (191) 
Palodesangren D

>  <PubChem ID>  (191) 
10005461

>  <CDB ID>  (191) 
CDB0191

>  <Smiles>  (191) 
CC1=CC2C(C(C1)C3=C(C=C(C=C3)O)OC)C(OC4=C2C=C5C=CC(=O)OC5=C4)C6=CC=C(C=C6)O

>  <Chemical class>  (191) 
7-Oxygenated Coumarins

>  <Natural source>  (191) 
Brosimum rubescens

>  <Molecular Formula>  (191) 
C30H26O6

>  <InChI-Key>  (191) 
YECGSLHMDGBPTB-UHFFFAOYSA-N

>  <Total Molweight>  (191) 
482.53

>  <cLogP>  (191) 
6.0683

>  <cLogS>  (191) 
-5.81

>  <H-Acceptors>  (191) 
6

>  <H-Donors>  (191) 
2

>  <Rotatable Bonds>  (191) 
3

>  <Polar Surface Area>  (191) 
85.22

$$$$
CDB0192
     RDKit          3D

 63 68  0  0  0  0  0  0  0  0999 V2000
    0.3607   -3.8055   -3.0257 C   0  0  0  0  0  0  0  0  0  0  0  0
    0.3370   -2.6084   -2.1179 C   0  0  0  0  0  0  0  0  0  0  0  0
   -0.7985   -2.1618   -1.5542 C   0  0  0  0  0  0  0  0  0  0  0  0
   -0.8839   -0.9610   -0.6334 C   0  0  0  0  0  0  0  0  0  0  0  0
    0.5052   -0.5548   -0.0975 C   0  0  0  0  0  0  0  0  0  0  0  0
    1.5607   -0.5349   -1.2314 C   0  0  0  0  0  0  0  0  0  0  0  0
    1.6617   -1.9307   -1.8940 C   0  0  0  0  0  0  0  0  0  0  0  0
    2.9684   -0.1149   -0.8226 C   0  0  0  0  0  0  0  0  0  0  0  0
    3.5949   -0.6232    0.3296 C   0  0  0  0  0  0  0  0  0  0  0  0
    4.8872   -0.2177    0.6497 C   0  0  0  0  0  0  0  0  0  0  0  0
    5.5695    0.6773   -0.1683 C   0  0  0  0  0  0  0  0  0  0  0  0
    4.9801    1.1758   -1.3179 C   0  0  0  0  0  0  0  0  0  0  0  0
    3.6838    0.7751   -1.6478 C   0  0  0  0  0  0  0  0  0  0  0  0
    6.8360    1.0699    0.1566 O   0  0  0  0  0  0  0  0  0  0  0  0
    5.5333   -0.6769    1.7646 O   0  0  0  0  0  0  0  0  0  0  0  0
    0.3787    0.7357    0.7487 C   0  0  0  0  0  0  0  0  0  0  0  0
   -0.5947    0.6393    1.8029 O   0  0  0  0  0  0  0  0  0  0  0  0
   -1.5882   -0.2926    1.6951 C   0  0  0  0  0  0  0  0  0  0  0  0
   -1.8075   -1.1043    0.5683 C   0  0  0  0  0  0  0  0  0  0  0  0
   -2.9285   -1.9600    0.5774 C   0  0  0  0  0  0  0  0  0  0  0  0
   -3.7736   -2.0367    1.6901 C   0  0  0  0  0  0  0  0  0  0  0  0
   -4.9274   -2.9209    1.7239 C   0  0  0  0  0  0  0  0  0  0  0  0
   -5.7021   -2.9491    2.8126 C   0  0  0  0  0  0  0  0  0  0  0  0
   -5.4352   -2.1111    3.9950 C   0  0  0  0  0  0  0  0  0  0  0  0
   -6.1686   -2.1632    4.9756 O   0  0  0  0  0  0  0  0  0  0  0  0
   -4.3293   -1.2744    3.9363 O   0  0  0  0  0  0  0  0  0  0  0  0
   -3.5069   -1.2383    2.7946 C   0  0  0  0  0  0  0  0  0  0  0  0
   -2.4284   -0.3647    2.8086 C   0  0  0  0  0  0  0  0  0  0  0  0
    0.2756    2.0812    0.0335 C   0  0  0  0  0  0  0  0  0  0  0  0
   -0.9011    2.6147   -0.5171 C   0  0  0  0  0  0  0  0  0  0  0  0
   -0.8936    3.8324   -1.2143 C   0  0  0  0  0  0  0  0  0  0  0  0
    0.2821    4.5632   -1.3126 C   0  0  0  0  0  0  0  0  0  0  0  0
    1.4477    4.0976   -0.7289 C   0  0  0  0  0  0  0  0  0  0  0  0
    1.4417    2.8714   -0.0602 C   0  0  0  0  0  0  0  0  0  0  0  0
    0.3313    5.7530   -1.9751 O   0  0  0  0  0  0  0  0  0  0  0  0
   -2.0826    1.9276   -0.4332 O   0  0  0  0  0  0  0  0  0  0  0  0
   -3.0094    2.5971    0.4252 C   0  0  0  0  0  0  0  0  0  0  0  0
    1.0348   -4.5699   -2.6259 H   0  0  0  0  0  0  0  0  0  0  0  0
    0.7100   -3.5197   -4.0230 H   0  0  0  0  0  0  0  0  0  0  0  0
   -0.6296   -4.2597   -3.1361 H   0  0  0  0  0  0  0  0  0  0  0  0
   -1.7264   -2.6567   -1.8251 H   0  0  0  0  0  0  0  0  0  0  0  0
   -1.2928   -0.1634   -1.2620 H   0  0  0  0  0  0  0  0  0  0  0  0
    0.8055   -1.3456    0.6111 H   0  0  0  0  0  0  0  0  0  0  0  0
    1.2005    0.1710   -1.9941 H   0  0  0  0  0  0  0  0  0  0  0  0
    2.2774   -2.6052   -1.2837 H   0  0  0  0  0  0  0  0  0  0  0  0
    2.1805   -1.8213   -2.8558 H   0  0  0  0  0  0  0  0  0  0  0  0
    3.0764   -1.3345    0.9648 H   0  0  0  0  0  0  0  0  0  0  0  0
    5.5227    1.8694   -1.9530 H   0  0  0  0  0  0  0  0  0  0  0  0
    3.2290    1.1731   -2.5536 H   0  0  0  0  0  0  0  0  0  0  0  0
    7.0348    0.5919    0.9862 H   0  0  0  0  0  0  0  0  0  0  0  0
    4.9400   -1.2914    2.2297 H   0  0  0  0  0  0  0  0  0  0  0  0
    1.3133    0.7894    1.3224 H   0  0  0  0  0  0  0  0  0  0  0  0
   -3.1626   -2.5729   -0.2875 H   0  0  0  0  0  0  0  0  0  0  0  0
   -5.1429   -3.5465    0.8649 H   0  0  0  0  0  0  0  0  0  0  0  0
   -6.5702   -3.5934    2.8796 H   0  0  0  0  0  0  0  0  0  0  0  0
   -2.2453    0.2665    3.6733 H   0  0  0  0  0  0  0  0  0  0  0  0
   -1.8080    4.1904   -1.6750 H   0  0  0  0  0  0  0  0  0  0  0  0
    2.3633    4.6788   -0.7958 H   0  0  0  0  0  0  0  0  0  0  0  0
    2.3747    2.5355    0.3906 H   0  0  0  0  0  0  0  0  0  0  0  0
   -0.5498    5.9474   -2.3342 H   0  0  0  0  0  0  0  0  0  0  0  0
   -3.4471    3.4661   -0.0763 H   0  0  0  0  0  0  0  0  0  0  0  0
   -2.5439    2.8961    1.3713 H   0  0  0  0  0  0  0  0  0  0  0  0
   -3.8204    1.8983    0.6511 H   0  0  0  0  0  0  0  0  0  0  0  0
  1  2  1  0
  2  3  2  0
  3  4  1  0
  4  5  1  0
  5  6  1  0
  6  7  1  0
  6  8  1  0
  8  9  2  0
  9 10  1  0
 10 11  2  0
 11 12  1  0
 12 13  2  0
 11 14  1  0
 10 15  1  0
  5 16  1  0
 16 17  1  0
 17 18  1  0
 18 19  2  0
 19 20  1  0
 20 21  2  0
 21 22  1  0
 22 23  2  0
 23 24  1  0
 24 25  2  0
 24 26  1  0
 26 27  1  0
 27 28  2  0
 16 29  1  0
 29 30  2  0
 30 31  1  0
 31 32  2  0
 32 33  1  0
 33 34  2  0
 32 35  1  0
 30 36  1  0
 36 37  1  0
  7  2  1  0
 19  4  1  0
 13  8  1  0
 28 18  1  0
 27 21  1  0
 34 29  1  0
  1 38  1  0
  1 39  1  0
  1 40  1  0
  3 41  1  0
  4 42  1  0
  5 43  1  0
  6 44  1  0
  7 45  1  0
  7 46  1  0
  9 47  1  0
 12 48  1  0
 13 49  1  0
 14 50  1  0
 15 51  1  0
 16 52  1  0
 20 53  1  0
 22 54  1  0
 23 55  1  0
 28 56  1  0
 31 57  1  0
 33 58  1  0
 34 59  1  0
 35 60  1  0
 37 61  1  0
 37 62  1  0
 37 63  1  0
M  END
>  <Name>  (192) 
Palodesangren A

>  <PubChem ID>  (192) 
10696654

>  <CDB ID>  (192) 
CDB0192

>  <Smiles>  (192) 
CC1=CC2C(C(C1)C3=CC(=C(C=C3)O)O)C(OC4=C2C=C5C=CC(=O)OC5=C4)C6=C(C=C(C=C6)O)OC

>  <Chemical class>  (192) 
7-Oxygenated Coumarins

>  <Natural source>  (192) 
Brosimum rubescens

>  <Molecular Formula>  (192) 
C30H26O7

>  <InChI-Key>  (192) 
AAEFZQHINRCTBX-UHFFFAOYSA-N

>  <Total Molweight>  (192) 
498.529

>  <cLogP>  (192) 
5.7226

>  <cLogS>  (192) 
-5.514

>  <H-Acceptors>  (192) 
7

>  <H-Donors>  (192) 
3

>  <Rotatable Bonds>  (192) 
3

>  <Polar Surface Area>  (192) 
105.45

$$$$
CDB0193
     RDKit          3D

 63 68  0  0  0  0  0  0  0  0999 V2000
    1.2617   -3.8932    2.6754 C   0  0  0  0  0  0  0  0  0  0  0  0
    0.8634   -2.6460    1.9508 C   0  0  0  0  0  0  0  0  0  0  0  0
   -0.1077   -1.8195    2.3728 C   0  0  0  0  0  0  0  0  0  0  0  0
   -0.5318   -0.6189    1.5532 C   0  0  0  0  0  0  0  0  0  0  0  0
    0.6875    0.1359    0.9488 C   0  0  0  0  0  0  0  0  0  0  0  0
    1.9149   -0.8013    0.6305 C   0  0  0  0  0  0  0  0  0  0  0  0
    1.5898   -2.3116    0.6736 C   0  0  0  0  0  0  0  0  0  0  0  0
    2.7939   -0.3789   -0.5465 C   0  0  0  0  0  0  0  0  0  0  0  0
    3.7473    0.6568   -0.3971 C   0  0  0  0  0  0  0  0  0  0  0  0
    4.5486    1.0347   -1.4819 C   0  0  0  0  0  0  0  0  0  0  0  0
    4.3949    0.3981   -2.7104 C   0  0  0  0  0  0  0  0  0  0  0  0
    3.4525   -0.6031   -2.8810 C   0  0  0  0  0  0  0  0  0  0  0  0
    2.6523   -0.9875   -1.8064 C   0  0  0  0  0  0  0  0  0  0  0  0
    5.1551    0.7398   -3.7907 O   0  0  0  0  0  0  0  0  0  0  0  0
    3.7972    1.2469    0.8416 O   0  0  0  0  0  0  0  0  0  0  0  0
    4.7527    2.2795    1.0442 C   0  0  0  0  0  0  0  0  0  0  0  0
    0.2023    1.0171   -0.2270 C   0  0  0  0  0  0  0  0  0  0  0  0
   -0.3568    0.1802   -1.2575 O   0  0  0  0  0  0  0  0  0  0  0  0
   -1.3819   -0.6219   -0.8377 C   0  0  0  0  0  0  0  0  0  0  0  0
   -1.5511   -1.0126    0.4952 C   0  0  0  0  0  0  0  0  0  0  0  0
   -2.6869   -1.7766    0.8336 C   0  0  0  0  0  0  0  0  0  0  0  0
   -3.5952   -2.1822   -0.1480 C   0  0  0  0  0  0  0  0  0  0  0  0
   -4.7669   -2.9822    0.1678 C   0  0  0  0  0  0  0  0  0  0  0  0
   -5.5961   -3.3480   -0.8142 C   0  0  0  0  0  0  0  0  0  0  0  0
   -5.3711   -2.9722   -2.2215 C   0  0  0  0  0  0  0  0  0  0  0  0
   -6.1525   -3.3323   -3.0947 O   0  0  0  0  0  0  0  0  0  0  0  0
   -4.2475   -2.2058   -2.4965 O   0  0  0  0  0  0  0  0  0  0  0  0
   -3.3667   -1.8137   -1.4698 C   0  0  0  0  0  0  0  0  0  0  0  0
   -2.2700   -1.0390   -1.8280 C   0  0  0  0  0  0  0  0  0  0  0  0
   -0.7149    2.2095    0.0976 C   0  0  0  0  0  0  0  0  0  0  0  0
   -1.5469    2.7372   -0.9093 C   0  0  0  0  0  0  0  0  0  0  0  0
   -2.3574    3.8349   -0.6507 C   0  0  0  0  0  0  0  0  0  0  0  0
   -2.3510    4.4460    0.5968 C   0  0  0  0  0  0  0  0  0  0  0  0
   -1.5207    3.9694    1.6004 C   0  0  0  0  0  0  0  0  0  0  0  0
   -0.6996    2.8625    1.3458 C   0  0  0  0  0  0  0  0  0  0  0  0
   -3.1724    5.5223    0.7853 O   0  0  0  0  0  0  0  0  0  0  0  0
   -3.1630    4.3174   -1.6421 O   0  0  0  0  0  0  0  0  0  0  0  0
    2.3117   -3.8371    2.9797 H   0  0  0  0  0  0  0  0  0  0  0  0
    1.1322   -4.7657    2.0273 H   0  0  0  0  0  0  0  0  0  0  0  0
    0.6598   -4.0526    3.5761 H   0  0  0  0  0  0  0  0  0  0  0  0
   -0.6547   -2.0262    3.2886 H   0  0  0  0  0  0  0  0  0  0  0  0
   -1.0432    0.0757    2.2337 H   0  0  0  0  0  0  0  0  0  0  0  0
    1.0726    0.8018    1.7330 H   0  0  0  0  0  0  0  0  0  0  0  0
    2.5732   -0.6916    1.5096 H   0  0  0  0  0  0  0  0  0  0  0  0
    0.9769   -2.6316   -0.1764 H   0  0  0  0  0  0  0  0  0  0  0  0
    2.5272   -2.8803    0.6190 H   0  0  0  0  0  0  0  0  0  0  0  0
    5.2860    1.8218   -1.3886 H   0  0  0  0  0  0  0  0  0  0  0  0
    3.3325   -1.0801   -3.8497 H   0  0  0  0  0  0  0  0  0  0  0  0
    1.9041   -1.7570   -1.9785 H   0  0  0  0  0  0  0  0  0  0  0  0
    5.7516    1.4636   -3.5411 H   0  0  0  0  0  0  0  0  0  0  0  0
    4.5491    3.1377    0.3954 H   0  0  0  0  0  0  0  0  0  0  0  0
    5.7729    1.9075    0.9040 H   0  0  0  0  0  0  0  0  0  0  0  0
    4.6624    2.6186    2.0807 H   0  0  0  0  0  0  0  0  0  0  0  0
    1.0699    1.5057   -0.6838 H   0  0  0  0  0  0  0  0  0  0  0  0
   -2.8507   -2.0667    1.8690 H   0  0  0  0  0  0  0  0  0  0  0  0
   -4.9513   -3.2710    1.1964 H   0  0  0  0  0  0  0  0  0  0  0  0
   -6.4801   -3.9439   -0.6232 H   0  0  0  0  0  0  0  0  0  0  0  0
   -2.1184   -0.7424   -2.8613 H   0  0  0  0  0  0  0  0  0  0  0  0
   -1.5686    2.2950   -1.9028 H   0  0  0  0  0  0  0  0  0  0  0  0
   -1.4875    4.4414    2.5770 H   0  0  0  0  0  0  0  0  0  0  0  0
   -0.0438    2.5316    2.1462 H   0  0  0  0  0  0  0  0  0  0  0  0
   -3.0586    5.8330    1.6996 H   0  0  0  0  0  0  0  0  0  0  0  0
   -3.6313    5.0711   -1.2321 H   0  0  0  0  0  0  0  0  0  0  0  0
  1  2  1  0
  2  3  2  0
  3  4  1  0
  4  5  1  0
  5  6  1  0
  6  7  1  0
  6  8  1  0
  8  9  2  0
  9 10  1  0
 10 11  2  0
 11 12  1  0
 12 13  2  0
 11 14  1  0
  9 15  1  0
 15 16  1  0
  5 17  1  0
 17 18  1  0
 18 19  1  0
 19 20  2  0
 20 21  1  0
 21 22  2  0
 22 23  1  0
 23 24  2  0
 24 25  1  0
 25 26  2  0
 25 27  1  0
 27 28  1  0
 28 29  2  0
 17 30  1  0
 30 31  2  0
 31 32  1  0
 32 33  2  0
 33 34  1  0
 34 35  2  0
 33 36  1  0
 32 37  1  0
  7  2  1  0
 20  4  1  0
 13  8  1  0
 29 19  1  0
 28 22  1  0
 35 30  1  0
  1 38  1  0
  1 39  1  0
  1 40  1  0
  3 41  1  0
  4 42  1  0
  5 43  1  0
  6 44  1  0
  7 45  1  0
  7 46  1  0
 10 47  1  0
 12 48  1  0
 13 49  1  0
 14 50  1  0
 16 51  1  0
 16 52  1  0
 16 53  1  0
 17 54  1  0
 21 55  1  0
 23 56  1  0
 24 57  1  0
 29 58  1  0
 31 59  1  0
 34 60  1  0
 35 61  1  0
 36 62  1  0
 37 63  1  0
M  END
>  <Name>  (193) 
Palodesangren B

>  <PubChem ID>  (193) 
10648988

>  <CDB ID>  (193) 
CDB0193

>  <Smiles>  (193) 
CC1=CC2C(C(C1)C3=C(C=C(C=C3)O)OC)C(OC4=C2C=C5C=CC(=O)OC5=C4)C6=CC(=C(C=C6)O)O

>  <Chemical class>  (193) 
7-Oxygenated Coumarins

>  <Natural source>  (193) 
Brosimum rubescens

>  <Molecular Formula>  (193) 
C30H26O7

>  <InChI-Key>  (193) 
VKFBYVPUKNMLSC-UHFFFAOYSA-N

>  <Total Molweight>  (193) 
498.529

>  <cLogP>  (193) 
5.7226

>  <cLogS>  (193) 
-5.514

>  <H-Acceptors>  (193) 
7

>  <H-Donors>  (193) 
3

>  <Rotatable Bonds>  (193) 
3

>  <Polar Surface Area>  (193) 
105.45

$$$$
CDB0194
     RDKit          3D

 66 71  0  0  0  0  0  0  0  0999 V2000
    0.1591   -1.7917   -3.4242 C   0  0  0  0  0  0  0  0  0  0  0  0
    0.3402   -1.2620   -2.0303 C   0  0  0  0  0  0  0  0  0  0  0  0
   -0.3659   -1.7400   -0.9908 C   0  0  0  0  0  0  0  0  0  0  0  0
   -0.2363   -1.2194    0.4199 C   0  0  0  0  0  0  0  0  0  0  0  0
    0.3888    0.1810    0.5039 C   0  0  0  0  0  0  0  0  0  0  0  0
    1.6195    0.3259   -0.4303 C   0  0  0  0  0  0  0  0  0  0  0  0
    1.3503   -0.1490   -1.8809 C   0  0  0  0  0  0  0  0  0  0  0  0
    2.8550   -0.3213    0.2246 C   0  0  0  0  0  0  0  0  0  0  0  0
    3.6045    0.3994    1.1861 C   0  0  0  0  0  0  0  0  0  0  0  0
    4.7206   -0.1895    1.7937 C   0  0  0  0  0  0  0  0  0  0  0  0
    5.0826   -1.4915    1.4606 C   0  0  0  0  0  0  0  0  0  0  0  0
    4.3522   -2.2193    0.5351 C   0  0  0  0  0  0  0  0  0  0  0  0
    3.2424   -1.6395   -0.0779 C   0  0  0  0  0  0  0  0  0  0  0  0
    6.1617   -2.1002    2.0322 O   0  0  0  0  0  0  0  0  0  0  0  0
    3.1598    1.6688    1.4594 O   0  0  0  0  0  0  0  0  0  0  0  0
    3.8009    2.3871    2.5044 C   0  0  0  0  0  0  0  0  0  0  0  0
   -0.6623    1.3146    0.3833 C   0  0  0  0  0  0  0  0  0  0  0  0
   -1.7594    1.1594    1.3095 O   0  0  0  0  0  0  0  0  0  0  0  0
   -2.1871   -0.1029    1.5964 C   0  0  0  0  0  0  0  0  0  0  0  0
   -1.5318   -1.2713    1.1977 C   0  0  0  0  0  0  0  0  0  0  0  0
   -2.0772   -2.5199    1.5655 C   0  0  0  0  0  0  0  0  0  0  0  0
   -3.2565   -2.5948    2.3093 C   0  0  0  0  0  0  0  0  0  0  0  0
   -3.8447   -3.8645    2.7016 C   0  0  0  0  0  0  0  0  0  0  0  0
   -4.9736   -3.8712    3.4168 C   0  0  0  0  0  0  0  0  0  0  0  0
   -5.6561   -2.6321    3.8305 C   0  0  0  0  0  0  0  0  0  0  0  0
   -6.6903   -2.6792    4.4867 O   0  0  0  0  0  0  0  0  0  0  0  0
   -5.0733   -1.4334    3.4437 O   0  0  0  0  0  0  0  0  0  0  0  0
   -3.8836   -1.4141    2.6902 C   0  0  0  0  0  0  0  0  0  0  0  0
   -3.3624   -0.1716    2.3461 C   0  0  0  0  0  0  0  0  0  0  0  0
   -1.2045    1.7185   -0.9875 C   0  0  0  0  0  0  0  0  0  0  0  0
   -0.6583    2.8176   -1.6928 C   0  0  0  0  0  0  0  0  0  0  0  0
   -1.1732    3.1778   -2.9463 C   0  0  0  0  0  0  0  0  0  0  0  0
   -2.2251    2.4533   -3.4987 C   0  0  0  0  0  0  0  0  0  0  0  0
   -2.7789    1.3791   -2.8235 C   0  0  0  0  0  0  0  0  0  0  0  0
   -2.2757    1.0182   -1.5745 C   0  0  0  0  0  0  0  0  0  0  0  0
   -2.7489    2.7723   -4.7173 O   0  0  0  0  0  0  0  0  0  0  0  0
    0.3816    3.4690   -1.0793 O   0  0  0  0  0  0  0  0  0  0  0  0
    0.9948    4.5501   -1.7680 C   0  0  0  0  0  0  0  0  0  0  0  0
   -0.1589   -0.9881   -4.0964 H   0  0  0  0  0  0  0  0  0  0  0  0
   -0.5965   -2.5829   -3.4701 H   0  0  0  0  0  0  0  0  0  0  0  0
    1.1007   -2.2069   -3.7974 H   0  0  0  0  0  0  0  0  0  0  0  0
   -1.0690   -2.5528   -1.1595 H   0  0  0  0  0  0  0  0  0  0  0  0
    0.4464   -1.9115    0.9351 H   0  0  0  0  0  0  0  0  0  0  0  0
    0.7420    0.2696    1.5452 H   0  0  0  0  0  0  0  0  0  0  0  0
    1.8704    1.3896   -0.5260 H   0  0  0  0  0  0  0  0  0  0  0  0
    0.9825    0.7008   -2.4670 H   0  0  0  0  0  0  0  0  0  0  0  0
    2.2912   -0.4381   -2.3665 H   0  0  0  0  0  0  0  0  0  0  0  0
    5.3120    0.3503    2.5225 H   0  0  0  0  0  0  0  0  0  0  0  0
    4.6430   -3.2369    0.2899 H   0  0  0  0  0  0  0  0  0  0  0  0
    2.6845   -2.2404   -0.7912 H   0  0  0  0  0  0  0  0  0  0  0  0
    6.5805   -1.4812    2.6519 H   0  0  0  0  0  0  0  0  0  0  0  0
    4.8434    2.6038    2.2499 H   0  0  0  0  0  0  0  0  0  0  0  0
    3.7272    1.8521    3.4570 H   0  0  0  0  0  0  0  0  0  0  0  0
    3.2815    3.3434    2.6194 H   0  0  0  0  0  0  0  0  0  0  0  0
   -0.1582    2.2017    0.7873 H   0  0  0  0  0  0  0  0  0  0  0  0
   -1.5644   -3.4338    1.2706 H   0  0  0  0  0  0  0  0  0  0  0  0
   -3.3590   -4.7885    2.4086 H   0  0  0  0  0  0  0  0  0  0  0  0
   -5.4458   -4.7943    3.7303 H   0  0  0  0  0  0  0  0  0  0  0  0
   -3.8672    0.7395    2.6541 H   0  0  0  0  0  0  0  0  0  0  0  0
   -0.7666    4.0145   -3.5001 H   0  0  0  0  0  0  0  0  0  0  0  0
   -3.6034    0.8239   -3.2612 H   0  0  0  0  0  0  0  0  0  0  0  0
   -2.7368    0.1769   -1.0652 H   0  0  0  0  0  0  0  0  0  0  0  0
   -2.2965    3.5606   -5.0578 H   0  0  0  0  0  0  0  0  0  0  0  0
    1.8064    4.9286   -1.1392 H   0  0  0  0  0  0  0  0  0  0  0  0
    1.4352    4.2169   -2.7135 H   0  0  0  0  0  0  0  0  0  0  0  0
    0.2864    5.3698   -1.9257 H   0  0  0  0  0  0  0  0  0  0  0  0
  1  2  1  0
  2  3  2  0
  3  4  1  0
  4  5  1  0
  5  6  1  0
  6  7  1  0
  6  8  1  0
  8  9  2  0
  9 10  1  0
 10 11  2  0
 11 12  1  0
 12 13  2  0
 11 14  1  0
  9 15  1  0
 15 16  1  0
  5 17  1  0
 17 18  1  0
 18 19  1  0
 19 20  2  0
 20 21  1  0
 21 22  2  0
 22 23  1  0
 23 24  2  0
 24 25  1  0
 25 26  2  0
 25 27  1  0
 27 28  1  0
 28 29  2  0
 17 30  1  0
 30 31  2  0
 31 32  1  0
 32 33  2  0
 33 34  1  0
 34 35  2  0
 33 36  1  0
 31 37  1  0
 37 38  1  0
  7  2  1  0
 20  4  1  0
 13  8  1  0
 29 19  1  0
 28 22  1  0
 35 30  1  0
  1 39  1  0
  1 40  1  0
  1 41  1  0
  3 42  1  0
  4 43  1  0
  5 44  1  0
  6 45  1  0
  7 46  1  0
  7 47  1  0
 10 48  1  0
 12 49  1  0
 13 50  1  0
 14 51  1  0
 16 52  1  0
 16 53  1  0
 16 54  1  0
 17 55  1  0
 21 56  1  0
 23 57  1  0
 24 58  1  0
 29 59  1  0
 32 60  1  0
 34 61  1  0
 35 62  1  0
 36 63  1  0
 38 64  1  0
 38 65  1  0
 38 66  1  0
M  END
>  <Name>  (194) 
Palodesangren E

>  <PubChem ID>  (194) 
10255841

>  <CDB ID>  (194) 
CDB0194

>  <Smiles>  (194) 
CC1=CC2C(C(C1)C3=C(C=C(C=C3)O)OC)C(OC4=C2C=C5C=CC(=O)OC5=C4)C6=C(C=C(C=C6)O)OC

>  <Chemical class>  (194) 
7-Oxygenated Coumarins

>  <Natural source>  (194) 
Brosimum rubescens

>  <Molecular Formula>  (194) 
C31H28O7

>  <InChI-Key>  (194) 
BKCPZBIJQGQCCP-UHFFFAOYSA-N

>  <Total Molweight>  (194) 
512.556

>  <cLogP>  (194) 
5.9983

>  <cLogS>  (194) 
-5.828

>  <H-Acceptors>  (194) 
7

>  <H-Donors>  (194) 
2

>  <Rotatable Bonds>  (194) 
4

>  <Polar Surface Area>  (194) 
94.45

$$$$
CDB0195
     RDKit          3D

 29 31  0  0  0  0  0  0  0  0999 V2000
   -3.3255    1.0366   -1.0986 C   0  0  0  0  0  0  0  0  0  0  0  0
   -2.6120    0.0433   -0.1739 C   0  0  0  0  0  0  0  0  0  0  0  0
   -2.3686    0.6978    1.1676 C   0  0  0  0  0  0  0  0  0  0  0  0
   -1.1529    0.8727    1.6925 C   0  0  0  0  0  0  0  0  0  0  0  0
   -0.0083    0.4064    0.9271 C   0  0  0  0  0  0  0  0  0  0  0  0
   -0.2073   -0.2024   -0.3167 C   0  0  0  0  0  0  0  0  0  0  0  0
   -1.4348   -0.3967   -0.8821 O   0  0  0  0  0  0  0  0  0  0  0  0
    0.8822   -0.6538   -1.0603 C   0  0  0  0  0  0  0  0  0  0  0  0
    2.1661   -0.4906   -0.5492 C   0  0  0  0  0  0  0  0  0  0  0  0
    2.3892    0.1123    0.6865 C   0  0  0  0  0  0  0  0  0  0  0  0
    1.2933    0.5628    1.4273 C   0  0  0  0  0  0  0  0  0  0  0  0
    3.7548    0.2530    1.1646 C   0  0  0  0  0  0  0  0  0  0  0  0
    4.7640   -0.1968    0.4127 C   0  0  0  0  0  0  0  0  0  0  0  0
    4.5515   -0.8378   -0.8973 C   0  0  0  0  0  0  0  0  0  0  0  0
    5.5032   -1.2377   -1.5581 O   0  0  0  0  0  0  0  0  0  0  0  0
    3.2391   -0.9604   -1.3318 O   0  0  0  0  0  0  0  0  0  0  0  0
   -3.4874   -1.2001    0.0221 C   0  0  0  0  0  0  0  0  0  0  0  0
   -3.5245    0.5851   -2.0777 H   0  0  0  0  0  0  0  0  0  0  0  0
   -4.2774    1.3791   -0.6779 H   0  0  0  0  0  0  0  0  0  0  0  0
   -2.6967    1.9152   -1.2871 H   0  0  0  0  0  0  0  0  0  0  0  0
   -3.2386    1.0391    1.7231 H   0  0  0  0  0  0  0  0  0  0  0  0
   -1.0069    1.3453    2.6567 H   0  0  0  0  0  0  0  0  0  0  0  0
    0.7292   -1.1263   -2.0256 H   0  0  0  0  0  0  0  0  0  0  0  0
    1.4481    1.0359    2.3940 H   0  0  0  0  0  0  0  0  0  0  0  0
    3.9361    0.7214    2.1256 H   0  0  0  0  0  0  0  0  0  0  0  0
    5.7958   -0.1118    0.7314 H   0  0  0  0  0  0  0  0  0  0  0  0
   -4.4465   -0.9576    0.4928 H   0  0  0  0  0  0  0  0  0  0  0  0
   -3.6893   -1.6908   -0.9374 H   0  0  0  0  0  0  0  0  0  0  0  0
   -2.9760   -1.9431    0.6459 H   0  0  0  0  0  0  0  0  0  0  0  0
  1  2  1  0
  2  3  1  0
  3  4  2  0
  4  5  1  0
  5  6  2  0
  6  7  1  0
  6  8  1  0
  8  9  2  0
  9 10  1  0
 10 11  2  0
 10 12  1  0
 12 13  2  0
 13 14  1  0
 14 15  2  0
 14 16  1  0
  2 17  1  0
  7  2  1  0
 11  5  1  0
 16  9  1  0
  1 18  1  0
  1 19  1  0
  1 20  1  0
  3 21  1  0
  4 22  1  0
  8 23  1  0
 11 24  1  0
 12 25  1  0
 13 26  1  0
 17 27  1  0
 17 28  1  0
 17 29  1  0
M  END
>  <Name>  (195) 
Xanthyletin

>  <PubChem ID>  (195) 
65188

>  <CDB ID>  (195) 
CDB0195

>  <Smiles>  (195) 
CC1(C=CC2=C(O1)C=C3C(=C2)C=CC(=O)O3)C

>  <Chemical class>  (195) 
7-Oxygenated Coumarins

>  <Natural source>  (195) 
Xanthoxylum americanum

>  <Molecular Formula>  (195) 
C14H12O3

>  <InChI-Key>  (195) 
QOTBQNVNUBKJMS-UHFFFAOYSA-N

>  <Total Molweight>  (195) 
228.246

>  <cLogP>  (195) 
2.5241

>  <cLogS>  (195) 
-3.629

>  <H-Acceptors>  (195) 
3

>  <H-Donors>  (195) 
0

>  <Rotatable Bonds>  (195) 
0

>  <Polar Surface Area>  (195) 
35.53

$$$$
CDB0196
     RDKit          3D

 44 47  0  0  0  0  0  0  0  0999 V2000
   -4.8635    0.2018    1.2007 C   0  0  0  0  0  0  0  0  0  0  0  0
   -3.9136    0.6421    0.0896 C   0  0  0  0  0  0  0  0  0  0  0  0
   -2.7247    1.4416    0.6640 C   0  0  0  0  0  0  0  0  0  0  0  0
   -1.4631    0.7006    0.2099 C   0  0  0  0  0  0  0  0  0  0  0  0
   -1.9363   -0.7329    0.0851 C   0  0  0  0  0  0  0  0  0  0  0  0
   -3.2754   -0.5605   -0.6292 C   0  0  0  0  0  0  0  0  0  0  0  0
   -3.0947   -0.1916   -1.9965 O   0  0  0  0  0  0  0  0  0  0  0  0
   -0.9104   -1.5639   -0.6542 C   0  0  0  0  0  0  0  0  0  0  0  0
   -1.2062   -2.0824   -1.7372 O   0  0  0  0  0  0  0  0  0  0  0  0
    0.4883   -1.7513   -0.0061 C   0  0  0  0  0  0  0  0  0  0  0  0
    1.2880   -0.4323    0.0003 C   0  0  0  0  0  0  0  0  0  0  0  0
    0.7950    0.7338    0.6280 C   0  0  0  0  0  0  0  0  0  0  0  0
   -0.4477    0.8005    1.2058 O   0  0  0  0  0  0  0  0  0  0  0  0
    1.5576    1.8996    0.7307 C   0  0  0  0  0  0  0  0  0  0  0  0
    2.8197    1.9332    0.1578 C   0  0  0  0  0  0  0  0  0  0  0  0
    3.3397    0.8279   -0.5024 C   0  0  0  0  0  0  0  0  0  0  0  0
    2.5771   -0.3462   -0.5741 C   0  0  0  0  0  0  0  0  0  0  0  0
    4.6669    0.9218   -1.0900 C   0  0  0  0  0  0  0  0  0  0  0  0
    5.3550    2.0625   -0.9819 C   0  0  0  0  0  0  0  0  0  0  0  0
    4.8213    3.2450   -0.2829 C   0  0  0  0  0  0  0  0  0  0  0  0
    5.4824    4.2736   -0.2009 O   0  0  0  0  0  0  0  0  0  0  0  0
    3.5521    3.1297    0.2672 O   0  0  0  0  0  0  0  0  0  0  0  0
    1.1852   -2.8946   -0.7923 C   0  0  0  0  0  0  0  0  0  0  0  0
    0.3440   -2.2773    1.4400 C   0  0  0  0  0  0  0  0  0  0  0  0
   -4.3572   -0.4255    1.9419 H   0  0  0  0  0  0  0  0  0  0  0  0
   -5.2784    1.0719    1.7203 H   0  0  0  0  0  0  0  0  0  0  0  0
   -5.6989   -0.3724    0.7869 H   0  0  0  0  0  0  0  0  0  0  0  0
   -4.4707    1.2700   -0.6166 H   0  0  0  0  0  0  0  0  0  0  0  0
   -2.7685    1.5200    1.7571 H   0  0  0  0  0  0  0  0  0  0  0  0
   -2.7196    2.4675    0.2782 H   0  0  0  0  0  0  0  0  0  0  0  0
   -1.1317    1.1195   -0.7532 H   0  0  0  0  0  0  0  0  0  0  0  0
   -2.1052   -1.1912    1.0665 H   0  0  0  0  0  0  0  0  0  0  0  0
   -3.8948   -1.4625   -0.5991 H   0  0  0  0  0  0  0  0  0  0  0  0
   -2.6233   -0.9380   -2.4265 H   0  0  0  0  0  0  0  0  0  0  0  0
    1.1616    2.7733    1.2399 H   0  0  0  0  0  0  0  0  0  0  0  0
    3.0187   -1.2004   -1.0810 H   0  0  0  0  0  0  0  0  0  0  0  0
    5.0808    0.0648   -1.6097 H   0  0  0  0  0  0  0  0  0  0  0  0
    6.3456    2.1747   -1.4054 H   0  0  0  0  0  0  0  0  0  0  0  0
    1.3520   -2.6234   -1.8418 H   0  0  0  0  0  0  0  0  0  0  0  0
    0.5718   -3.8045   -0.7922 H   0  0  0  0  0  0  0  0  0  0  0  0
    2.1528   -3.1627   -0.3520 H   0  0  0  0  0  0  0  0  0  0  0  0
    1.3229   -2.5259    1.8679 H   0  0  0  0  0  0  0  0  0  0  0  0
   -0.2756   -3.1815    1.4687 H   0  0  0  0  0  0  0  0  0  0  0  0
   -0.1190   -1.5548    2.1187 H   0  0  0  0  0  0  0  0  0  0  0  0
  1  2  1  0
  2  3  1  0
  3  4  1  0
  4  5  1  0
  5  6  1  0
  6  7  1  0
  5  8  1  0
  8  9  2  0
  8 10  1  0
 10 11  1  0
 11 12  2  0
 12 13  1  0
 12 14  1  0
 14 15  2  0
 15 16  1  0
 16 17  2  0
 16 18  1  0
 18 19  2  0
 19 20  1  0
 20 21  2  0
 20 22  1  0
 10 23  1  0
 10 24  1  0
  6  2  1  0
 13  4  1  0
 17 11  1  0
 22 15  1  0
  1 25  1  0
  1 26  1  0
  1 27  1  0
  2 28  1  0
  3 29  1  0
  3 30  1  0
  4 31  1  0
  5 32  1  0
  6 33  1  0
  7 34  1  0
 14 35  1  0
 17 36  1  0
 18 37  1  0
 19 38  1  0
 23 39  1  0
 23 40  1  0
 23 41  1  0
 24 42  1  0
 24 43  1  0
 24 44  1  0
M  END
>  <Name>  (196) 
Gynurone

>  <PubChem ID>  (196) 
101326878

>  <CDB ID>  (196) 
CDB0196

>  <Smiles>  (196) 
CC1CC2C(C1O)C(=O)C(C3=C(O2)C=C4C(=C3)C=CC(=O)O4)(C)C

>  <Chemical class>  (196) 
7-Oxygenated Coumarins

>  <Natural source>  (196) 
Gynura crepioides

>  <Molecular Formula>  (196) 
C19H20O5

>  <InChI-Key>  (196) 
ZRASJWQDWXPKAD-UHFFFAOYSA-N

>  <Total Molweight>  (196) 
328.363

>  <cLogP>  (196) 
2.2098

>  <cLogS>  (196) 
-4.241

>  <H-Acceptors>  (196) 
5

>  <H-Donors>  (196) 
1

>  <Rotatable Bonds>  (196) 
0

>  <Polar Surface Area>  (196) 
72.83

$$$$
CDB0197
     RDKit          3D

 25 26  0  0  0  0  0  0  0  0999 V2000
   -3.5080   -1.4073    0.1489 C   0  0  0  0  0  0  0  0  0  0  0  0
   -2.6369   -0.3503   -0.2334 O   0  0  0  0  0  0  0  0  0  0  0  0
   -1.2935   -0.5357   -0.0308 C   0  0  0  0  0  0  0  0  0  0  0  0
   -0.4815    0.6058   -0.1651 C   0  0  0  0  0  0  0  0  0  0  0  0
    0.9037    0.4624    0.0264 C   0  0  0  0  0  0  0  0  0  0  0  0
    1.4890   -0.7656    0.3350 C   0  0  0  0  0  0  0  0  0  0  0  0
    0.6735   -1.8881    0.4537 C   0  0  0  0  0  0  0  0  0  0  0  0
   -0.7089   -1.7741    0.2689 C   0  0  0  0  0  0  0  0  0  0  0  0
    2.9283   -0.8446    0.5273 C   0  0  0  0  0  0  0  0  0  0  0  0
    3.6737    0.2570    0.4022 C   0  0  0  0  0  0  0  0  0  0  0  0
    3.0927    1.5671    0.0663 C   0  0  0  0  0  0  0  0  0  0  0  0
    3.8068    2.5554   -0.0583 O   0  0  0  0  0  0  0  0  0  0  0  0
    1.7179    1.6128   -0.1092 O   0  0  0  0  0  0  0  0  0  0  0  0
   -1.0693    1.9585   -0.4572 C   0  0  0  0  0  0  0  0  0  0  0  0
   -1.2127    2.6755    0.7624 O   0  0  0  0  0  0  0  0  0  0  0  0
   -3.3578   -1.6904    1.1961 H   0  0  0  0  0  0  0  0  0  0  0  0
   -3.3911   -2.2691   -0.5159 H   0  0  0  0  0  0  0  0  0  0  0  0
   -4.5358   -1.0462    0.0461 H   0  0  0  0  0  0  0  0  0  0  0  0
    1.0971   -2.8612    0.6903 H   0  0  0  0  0  0  0  0  0  0  0  0
   -1.3049   -2.6764    0.3626 H   0  0  0  0  0  0  0  0  0  0  0  0
    3.3782   -1.7996    0.7749 H   0  0  0  0  0  0  0  0  0  0  0  0
    4.7477    0.2397    0.5399 H   0  0  0  0  0  0  0  0  0  0  0  0
   -2.0473    1.8892   -0.9435 H   0  0  0  0  0  0  0  0  0  0  0  0
   -0.4206    2.5271   -1.1328 H   0  0  0  0  0  0  0  0  0  0  0  0
   -1.5400    3.5583    0.5251 H   0  0  0  0  0  0  0  0  0  0  0  0
  1  2  1  0
  2  3  1  0
  3  4  2  0
  4  5  1  0
  5  6  2  0
  6  7  1  0
  7  8  2  0
  6  9  1  0
  9 10  2  0
 10 11  1  0
 11 12  2  0
 11 13  1  0
  4 14  1  0
 14 15  1  0
  8  3  1  0
 13  5  1  0
  1 16  1  0
  1 17  1  0
  1 18  1  0
  7 19  1  0
  8 20  1  0
  9 21  1  0
 10 22  1  0
 14 23  1  0
 14 24  1  0
 15 25  1  0
M  END
>  <Name>  (197) 
Murrayacarpin A

>  <PubChem ID>  (197) 
1051542

>  <CDB ID>  (197) 
CDB0197

>  <Smiles>  (197) 
COC1=C(C2=C(C=C1)C=CC(=O)O2)CO

>  <Chemical class>  (197) 
7-Oxygenated Coumarins

>  <Natural source>  (197) 
Murraya paniculata

>  <Molecular Formula>  (197) 
C11H10O4

>  <InChI-Key>  (197) 
LKHUOTSOCUDANT-UHFFFAOYSA-N

>  <Total Molweight>  (197) 
206.196

>  <cLogP>  (197) 
0.8301

>  <cLogS>  (197) 
-2.272

>  <H-Acceptors>  (197) 
4

>  <H-Donors>  (197) 
1

>  <Rotatable Bonds>  (197) 
2

>  <Polar Surface Area>  (197) 
55.76

$$$$
CDB0198
     RDKit          3D

 23 24  0  0  0  0  0  0  0  0999 V2000
    3.5833    1.0781   -0.7417 C   0  0  0  0  0  0  0  0  0  0  0  0
    2.6910   -0.0293   -0.6889 O   0  0  0  0  0  0  0  0  0  0  0  0
    1.3913    0.2065   -0.3214 C   0  0  0  0  0  0  0  0  0  0  0  0
    0.5272   -0.9057   -0.2764 C   0  0  0  0  0  0  0  0  0  0  0  0
   -0.8144   -0.7221    0.0936 C   0  0  0  0  0  0  0  0  0  0  0  0
   -1.3074    0.5438    0.4179 C   0  0  0  0  0  0  0  0  0  0  0  0
   -0.4484    1.6410    0.3719 C   0  0  0  0  0  0  0  0  0  0  0  0
    0.8912    1.4739    0.0050 C   0  0  0  0  0  0  0  0  0  0  0  0
   -2.7033    0.6984    0.7971 C   0  0  0  0  0  0  0  0  0  0  0  0
   -3.5029   -0.3708    0.8325 C   0  0  0  0  0  0  0  0  0  0  0  0
   -3.0255   -1.7224    0.4987 C   0  0  0  0  0  0  0  0  0  0  0  0
   -3.7888   -2.6795    0.5424 O   0  0  0  0  0  0  0  0  0  0  0  0
   -1.6901   -1.8322    0.1419 O   0  0  0  0  0  0  0  0  0  0  0  0
    1.0646   -2.2466   -0.6238 C   0  0  0  0  0  0  0  0  0  0  0  0
    0.3993   -3.2743   -0.6161 O   0  0  0  0  0  0  0  0  0  0  0  0
    3.2583    1.8108   -1.4875 H   0  0  0  0  0  0  0  0  0  0  0  0
    4.5636    0.7019   -1.0501 H   0  0  0  0  0  0  0  0  0  0  0  0
    3.6988    1.5384    0.2449 H   0  0  0  0  0  0  0  0  0  0  0  0
   -0.8078    2.6379    0.6199 H   0  0  0  0  0  0  0  0  0  0  0  0
    1.5183    2.3603   -0.0152 H   0  0  0  0  0  0  0  0  0  0  0  0
   -3.0806    1.6839    1.0479 H   0  0  0  0  0  0  0  0  0  0  0  0
   -4.5474   -0.2969    1.1097 H   0  0  0  0  0  0  0  0  0  0  0  0
    2.1297   -2.2951   -0.9023 H   0  0  0  0  0  0  0  0  0  0  0  0
  1  2  1  0
  2  3  1  0
  3  4  2  0
  4  5  1  0
  5  6  2  0
  6  7  1  0
  7  8  2  0
  6  9  1  0
  9 10  2  0
 10 11  1  0
 11 12  2  0
 11 13  1  0
  4 14  1  0
 14 15  2  0
  8  3  1  0
 13  5  1  0
  1 16  1  0
  1 17  1  0
  1 18  1  0
  7 19  1  0
  8 20  1  0
  9 21  1  0
 10 22  1  0
 14 23  1  0
M  END
>  <Name>  (198) 
Paniculal

>  <PubChem ID>  (198) 
11275724

>  <CDB ID>  (198) 
CDB0198

>  <Smiles>  (198) 
COC1=C(C2=C(C=C1)C=CC(=O)O2)C=O

>  <Chemical class>  (198) 
7-Oxygenated Coumarins

>  <Natural source>  (198) 
Murraya paniculata

>  <Molecular Formula>  (198) 
C11H8O4

>  <InChI-Key>  (198) 
AOXODSXRUFTUGB-UHFFFAOYSA-N

>  <Total Molweight>  (198) 
204.181

>  <cLogP>  (198) 
1.3607

>  <cLogS>  (198) 
-2.712

>  <H-Acceptors>  (198) 
4

>  <H-Donors>  (198) 
0

>  <Rotatable Bonds>  (198) 
2

>  <Polar Surface Area>  (198) 
52.6

$$$$
CDB0199
     RDKit          3D

 26 27  0  0  0  0  0  0  0  0999 V2000
   -3.5469   -1.1692   -0.1485 C   0  0  0  0  0  0  0  0  0  0  0  0
   -2.5561   -0.2499   -0.5926 O   0  0  0  0  0  0  0  0  0  0  0  0
   -1.2512   -0.5492   -0.2959 C   0  0  0  0  0  0  0  0  0  0  0  0
   -0.3281    0.4997   -0.4591 C   0  0  0  0  0  0  0  0  0  0  0  0
    1.0204    0.2549   -0.1533 C   0  0  0  0  0  0  0  0  0  0  0  0
    1.4679   -0.9925    0.2808 C   0  0  0  0  0  0  0  0  0  0  0  0
    0.5460   -2.0282    0.4156 C   0  0  0  0  0  0  0  0  0  0  0  0
   -0.8060   -1.8078    0.1278 C   0  0  0  0  0  0  0  0  0  0  0  0
    2.8773   -1.1795    0.5859 C   0  0  0  0  0  0  0  0  0  0  0  0
    3.7253   -0.1563    0.4472 C   0  0  0  0  0  0  0  0  0  0  0  0
    3.2881    1.1714   -0.0139 C   0  0  0  0  0  0  0  0  0  0  0  0
    4.0925    2.0863   -0.1473 O   0  0  0  0  0  0  0  0  0  0  0  0
    1.9380    1.3219   -0.2953 O   0  0  0  0  0  0  0  0  0  0  0  0
   -0.7830    1.8743   -0.8841 C   0  0  0  0  0  0  0  0  0  0  0  0
   -1.2114    2.7553    0.2651 C   0  0  0  0  0  0  0  0  0  0  0  0
   -1.1607    2.4594    1.4554 O   0  0  0  0  0  0  0  0  0  0  0  0
   -4.5265   -0.7157   -0.3274 H   0  0  0  0  0  0  0  0  0  0  0  0
   -3.4608   -1.3629    0.9260 H   0  0  0  0  0  0  0  0  0  0  0  0
   -3.5015   -2.0992   -0.7241 H   0  0  0  0  0  0  0  0  0  0  0  0
    0.8616   -3.0137    0.7496 H   0  0  0  0  0  0  0  0  0  0  0  0
   -1.4893   -2.6430    0.2441 H   0  0  0  0  0  0  0  0  0  0  0  0
    3.2211   -2.1492    0.9283 H   0  0  0  0  0  0  0  0  0  0  0  0
    4.7811   -0.2546    0.6673 H   0  0  0  0  0  0  0  0  0  0  0  0
    0.0115    2.3965   -1.4288 H   0  0  0  0  0  0  0  0  0  0  0  0
   -1.6222    1.8031   -1.5853 H   0  0  0  0  0  0  0  0  0  0  0  0
   -1.5868    3.7482   -0.0373 H   0  0  0  0  0  0  0  0  0  0  0  0
  1  2  1  0
  2  3  1  0
  3  4  2  0
  4  5  1  0
  5  6  2  0
  6  7  1  0
  7  8  2  0
  6  9  1  0
  9 10  2  0
 10 11  1  0
 11 12  2  0
 11 13  1  0
  4 14  1  0
 14 15  1  0
 15 16  2  0
  8  3  1  0
 13  5  1  0
  1 17  1  0
  1 18  1  0
  1 19  1  0
  7 20  1  0
  8 21  1  0
  9 22  1  0
 10 23  1  0
 14 24  1  0
 14 25  1  0
 15 26  1  0
M  END
>  <Name>  (199) 
Kiyomal

>  <PubChem ID>  (199) 
14184382

>  <CDB ID>  (199) 
CDB0199

>  <Smiles>  (199) 
COC1=C(C2=C(C=C1)C=CC(=O)O2)CC=O

>  <Chemical class>  (199) 
7-Oxygenated Coumarins

>  <Natural source>  (199) 
Citrus unshiu x C. sinensis x C. iyo

>  <Molecular Formula>  (199) 
C12H10O4

>  <InChI-Key>  (199) 
UIIMGHCYYQVNIS-UHFFFAOYSA-N

>  <Total Molweight>  (199) 
218.207

>  <cLogP>  (199) 
1.0479

>  <cLogS>  (199) 
-2.599

>  <H-Acceptors>  (199) 
4

>  <H-Donors>  (199) 
0

>  <Rotatable Bonds>  (199) 
3

>  <Polar Surface Area>  (199) 
52.6

$$$$
CDB0200
     RDKit          3D

 40 41  0  0  0  0  0  0  0  0999 V2000
    1.9845   -1.4137   -1.7865 C   0  0  0  0  0  0  0  0  0  0  0  0
    1.1506   -0.3730   -1.6098 C   0  0  0  0  0  0  0  0  0  0  0  0
    0.6044    0.3618   -2.8097 C   0  0  0  0  0  0  0  0  0  0  0  0
    0.7137    0.1853   -0.2439 C   0  0  2  0  0  0  0  0  0  0  0  0
    1.5117   -0.2879    0.9978 C   0  0  0  0  0  0  0  0  0  0  0  0
    2.8420    0.2650    0.9463 O   0  0  0  0  0  0  0  0  0  0  0  0
    3.6566   -0.1289    1.9602 C   0  0  0  0  0  0  0  0  0  0  0  0
    5.0093    0.4943    1.8000 C   0  0  0  0  0  0  0  0  0  0  0  0
    3.3456   -0.8788    2.8745 O   0  0  0  0  0  0  0  0  0  0  0  0
   -0.7933    0.0220   -0.0127 C   0  0  0  0  0  0  0  0  0  0  0  0
   -1.3875   -1.2413    0.1981 C   0  0  0  0  0  0  0  0  0  0  0  0
   -0.5417   -2.3182    0.1973 O   0  0  0  0  0  0  0  0  0  0  0  0
   -1.1128   -3.6180    0.2626 C   0  0  0  0  0  0  0  0  0  0  0  0
   -2.7708   -1.3390    0.4046 C   0  0  0  0  0  0  0  0  0  0  0  0
   -3.5806   -0.1995    0.3968 C   0  0  0  0  0  0  0  0  0  0  0  0
   -3.0171    1.0546    0.1836 C   0  0  0  0  0  0  0  0  0  0  0  0
   -1.6387    1.1503   -0.0169 C   0  0  0  0  0  0  0  0  0  0  0  0
   -1.0600    2.4246   -0.2370 O   0  0  0  0  0  0  0  0  0  0  0  0
   -1.8116    3.5902   -0.2654 C   0  0  0  0  0  0  0  0  0  0  0  0
   -1.3121    4.6916   -0.4613 O   0  0  0  0  0  0  0  0  0  0  0  0
   -3.2589    3.4461   -0.0458 C   0  0  0  0  0  0  0  0  0  0  0  0
   -3.8328    2.2587    0.1661 C   0  0  0  0  0  0  0  0  0  0  0  0
    2.2641   -1.7520   -2.7800 H   0  0  0  0  0  0  0  0  0  0  0  0
    2.4078   -1.9696   -0.9575 H   0  0  0  0  0  0  0  0  0  0  0  0
    1.0200   -0.0175   -3.7496 H   0  0  0  0  0  0  0  0  0  0  0  0
    0.8516    1.4268   -2.7491 H   0  0  0  0  0  0  0  0  0  0  0  0
   -0.4834    0.2574   -2.8669 H   0  0  0  0  0  0  0  0  0  0  0  0
    0.9474    1.2569   -0.3116 H   0  0  0  0  0  0  0  0  0  0  0  0
    1.0296    0.0875    1.9099 H   0  0  0  0  0  0  0  0  0  0  0  0
    1.5722   -1.3792    1.0649 H   0  0  0  0  0  0  0  0  0  0  0  0
    5.4544    0.1757    0.8541 H   0  0  0  0  0  0  0  0  0  0  0  0
    4.9227    1.5831    1.8378 H   0  0  0  0  0  0  0  0  0  0  0  0
    5.6581    0.1675    2.6177 H   0  0  0  0  0  0  0  0  0  0  0  0
   -1.8027   -3.7912   -0.5699 H   0  0  0  0  0  0  0  0  0  0  0  0
   -0.2989   -4.3444    0.1763 H   0  0  0  0  0  0  0  0  0  0  0  0
   -1.6040   -3.7825    1.2270 H   0  0  0  0  0  0  0  0  0  0  0  0
   -3.2539   -2.2953    0.5797 H   0  0  0  0  0  0  0  0  0  0  0  0
   -4.6501   -0.3098    0.5594 H   0  0  0  0  0  0  0  0  0  0  0  0
   -3.8331    4.3642   -0.0665 H   0  0  0  0  0  0  0  0  0  0  0  0
   -4.9023    2.1761    0.3258 H   0  0  0  0  0  0  0  0  0  0  0  0
  1  2  2  0
  2  3  1  0
  2  4  1  0
  4  5  1  0
  5  6  1  0
  6  7  1  0
  7  8  1  0
  7  9  2  0
  4 10  1  0
 10 11  2  0
 11 12  1  0
 12 13  1  0
 11 14  1  0
 14 15  2  0
 15 16  1  0
 16 17  2  0
 17 18  1  0
 18 19  1  0
 19 20  2  0
 19 21  1  0
 21 22  2  0
 17 10  1  0
 22 16  1  0
  1 23  1  0
  1 24  1  0
  3 25  1  0
  3 26  1  0
  3 27  1  0
  4 28  1  6
  5 29  1  0
  5 30  1  0
  8 31  1  0
  8 32  1  0
  8 33  1  0
 13 34  1  0
 13 35  1  0
 13 36  1  0
 14 37  1  0
 15 38  1  0
 21 39  1  0
 22 40  1  0
M  END
>  <Name>  (200) 
Isomurralonginol Acetate

>  <PubChem ID>  (200) 
13917402

>  <CDB ID>  (200) 
CDB0200

>  <Smiles>  (200) 
C=C(C)[C@H](COC(C)=O)C1=C(OC)C=CC2=C1OC(=O)C=C2

>  <Chemical class>  (200) 
7-Oxygenated Coumarins

>  <Natural source>  (200) 
Murraya exotica

>  <Molecular Formula>  (200) 
C17H18O5

>  <InChI-Key>  (200) 
KJRYZFDEVYMOEY-ZDUSSCGKSA-N

>  <Total Molweight>  (200) 
302.325

>  <cLogP>  (200) 
3.0476

>  <cLogS>  (200) 
-3.495

>  <H-Acceptors>  (200) 
5

>  <H-Donors>  (200) 
0

>  <Rotatable Bonds>  (200) 
6

>  <Polar Surface Area>  (200) 
61.83

$$$$
CDB0201
     RDKit          3D

 49 50  0  0  0  0  0  0  0  0999 V2000
    0.3761    0.7622   -2.0631 C   0  0  0  0  0  0  0  0  0  0  0  0
   -0.0957   -0.2909   -1.3704 C   0  0  0  0  0  0  0  0  0  0  0  0
   -0.3857   -1.5911   -2.0725 C   0  0  0  0  0  0  0  0  0  0  0  0
   -0.3557   -0.2023    0.1389 C   0  0  2  0  0  0  0  0  0  0  0  0
    0.5334   -1.1513    0.9840 C   0  0  0  0  0  0  0  0  0  0  0  0
    1.8639   -0.6026    1.1241 O   0  0  0  0  0  0  0  0  0  0  0  0
    2.8238   -1.1187    0.3122 C   0  0  0  0  0  0  0  0  0  0  0  0
    2.6694   -2.0177   -0.5029 O   0  0  0  0  0  0  0  0  0  0  0  0
    4.1412   -0.4194    0.5449 C   0  0  0  0  0  0  0  0  0  0  0  0
    4.3406    0.7584   -0.4159 C   0  0  0  0  0  0  0  0  0  0  0  0
    5.8272    1.1006   -0.5289 C   0  0  0  0  0  0  0  0  0  0  0  0
    3.5625    1.9937    0.0423 C   0  0  0  0  0  0  0  0  0  0  0  0
   -1.8556   -0.2605    0.4577 C   0  0  0  0  0  0  0  0  0  0  0  0
   -2.5533   -1.4619    0.7049 C   0  0  0  0  0  0  0  0  0  0  0  0
   -1.8219   -2.6182    0.6630 O   0  0  0  0  0  0  0  0  0  0  0  0
   -2.5235   -3.8551    0.6687 C   0  0  0  0  0  0  0  0  0  0  0  0
   -3.9289   -1.4314    0.9812 C   0  0  0  0  0  0  0  0  0  0  0  0
   -4.6354   -0.2255    0.9931 C   0  0  0  0  0  0  0  0  0  0  0  0
   -3.9756    0.9692    0.7281 C   0  0  0  0  0  0  0  0  0  0  0  0
   -2.6047    0.9374    0.4653 C   0  0  0  0  0  0  0  0  0  0  0  0
   -1.9280    2.1538    0.1925 O   0  0  0  0  0  0  0  0  0  0  0  0
   -2.5747    3.3800    0.1675 C   0  0  0  0  0  0  0  0  0  0  0  0
   -1.9894    4.4297   -0.0708 O   0  0  0  0  0  0  0  0  0  0  0  0
   -4.0180    3.3680    0.4516 C   0  0  0  0  0  0  0  0  0  0  0  0
   -4.6828    2.2403    0.7177 C   0  0  0  0  0  0  0  0  0  0  0  0
    0.5621    0.7042   -3.1313 H   0  0  0  0  0  0  0  0  0  0  0  0
    0.5808    1.7156   -1.5847 H   0  0  0  0  0  0  0  0  0  0  0  0
   -1.4567   -1.8125   -2.0499 H   0  0  0  0  0  0  0  0  0  0  0  0
    0.1543   -2.4221   -1.6119 H   0  0  0  0  0  0  0  0  0  0  0  0
   -0.0857   -1.5597   -3.1259 H   0  0  0  0  0  0  0  0  0  0  0  0
   -0.0185    0.7946    0.4593 H   0  0  0  0  0  0  0  0  0  0  0  0
    0.1421   -1.2126    2.0065 H   0  0  0  0  0  0  0  0  0  0  0  0
    0.5711   -2.1759    0.6016 H   0  0  0  0  0  0  0  0  0  0  0  0
    4.2167   -0.1094    1.5940 H   0  0  0  0  0  0  0  0  0  0  0  0
    4.9214   -1.1774    0.3997 H   0  0  0  0  0  0  0  0  0  0  0  0
    3.9795    0.4796   -1.4142 H   0  0  0  0  0  0  0  0  0  0  0  0
    6.3958    0.2444   -0.9070 H   0  0  0  0  0  0  0  0  0  0  0  0
    5.9835    1.9349   -1.2210 H   0  0  0  0  0  0  0  0  0  0  0  0
    6.2452    1.3831    0.4434 H   0  0  0  0  0  0  0  0  0  0  0  0
    3.7100    2.8247   -0.6559 H   0  0  0  0  0  0  0  0  0  0  0  0
    3.8903    2.3248    1.0337 H   0  0  0  0  0  0  0  0  0  0  0  0
    2.4889    1.7934    0.0922 H   0  0  0  0  0  0  0  0  0  0  0  0
   -1.7920   -4.6534    0.5108 H   0  0  0  0  0  0  0  0  0  0  0  0
   -3.2513   -3.9045   -0.1480 H   0  0  0  0  0  0  0  0  0  0  0  0
   -3.0008   -4.0290    1.6383 H   0  0  0  0  0  0  0  0  0  0  0  0
   -4.4864   -2.3385    1.1940 H   0  0  0  0  0  0  0  0  0  0  0  0
   -5.7016   -0.2385    1.2063 H   0  0  0  0  0  0  0  0  0  0  0  0
   -4.5106    4.3323    0.4324 H   0  0  0  0  0  0  0  0  0  0  0  0
   -5.7473    2.2555    0.9242 H   0  0  0  0  0  0  0  0  0  0  0  0
  1  2  2  0
  2  3  1  0
  2  4  1  0
  4  5  1  0
  5  6  1  0
  6  7  1  0
  7  8  2  0
  7  9  1  0
  9 10  1  0
 10 11  1  0
 10 12  1  0
  4 13  1  0
 13 14  2  0
 14 15  1  0
 15 16  1  0
 14 17  1  0
 17 18  2  0
 18 19  1  0
 19 20  2  0
 20 21  1  0
 21 22  1  0
 22 23  2  0
 22 24  1  0
 24 25  2  0
 20 13  1  0
 25 19  1  0
  1 26  1  0
  1 27  1  0
  3 28  1  0
  3 29  1  0
  3 30  1  0
  4 31  1  1
  5 32  1  0
  5 33  1  0
  9 34  1  0
  9 35  1  0
 10 36  1  0
 11 37  1  0
 11 38  1  0
 11 39  1  0
 12 40  1  0
 12 41  1  0
 12 42  1  0
 16 43  1  0
 16 44  1  0
 16 45  1  0
 17 46  1  0
 18 47  1  0
 24 48  1  0
 25 49  1  0
M  END
>  <Name>  (201) 
Isomurralonginol Isovalerate

>  <PubChem ID>  (201) 
45359775

>  <CDB ID>  (201) 
CDB0201

>  <Smiles>  (201) 
C=C(C)[C@H](COC(=O)CC(C)C)C1=C(OC)C=CC2=C1OC(=O)C=C2

>  <Chemical class>  (201) 
7-Oxygenated Coumarins

>  <Natural source>  (201) 
Murraya paniculata

>  <Molecular Formula>  (201) 
C20H24O5

>  <InChI-Key>  (201) 
CSGAUVGJICYHPH-HNNXBMFYSA-N

>  <Total Molweight>  (201) 
344.406

>  <cLogP>  (201) 
4.1747

>  <cLogS>  (201) 
-4.195

>  <H-Acceptors>  (201) 
5

>  <H-Donors>  (201) 
0

>  <Rotatable Bonds>  (201) 
8

>  <Polar Surface Area>  (201) 
61.83

$$$$
CDB0202
     RDKit          3D

 33 34  0  0  0  0  0  0  0  0999 V2000
   -3.4069    1.4048    0.6970 C   0  0  0  0  0  0  0  0  0  0  0  0
   -2.1078    0.8933    0.1212 C   0  0  0  0  0  0  0  0  0  0  0  0
   -1.1332    0.2745    0.8345 C   0  0  0  0  0  0  0  0  0  0  0  0
   -1.2210    0.1067    2.3209 C   0  0  0  0  0  0  0  0  0  0  0  0
   -0.4100   -0.5442    2.9734 O   0  0  0  0  0  0  0  0  0  0  0  0
    0.0949   -0.2457    0.1897 C   0  0  0  0  0  0  0  0  0  0  0  0
    0.1432   -1.5532   -0.3312 C   0  0  0  0  0  0  0  0  0  0  0  0
    1.3262   -2.0179   -0.9206 C   0  0  0  0  0  0  0  0  0  0  0  0
    2.4641   -1.2035   -0.9772 C   0  0  0  0  0  0  0  0  0  0  0  0
    2.4311    0.0880   -0.4527 C   0  0  0  0  0  0  0  0  0  0  0  0
    1.2487    0.5526    0.1218 C   0  0  0  0  0  0  0  0  0  0  0  0
    1.1884    1.8650    0.6496 O   0  0  0  0  0  0  0  0  0  0  0  0
    2.2809    2.7177    0.6206 C   0  0  0  0  0  0  0  0  0  0  0  0
    2.2362    3.8606    1.0604 O   0  0  0  0  0  0  0  0  0  0  0  0
    3.5170    2.1904    0.0193 C   0  0  0  0  0  0  0  0  0  0  0  0
    3.5960    0.9575   -0.4897 C   0  0  0  0  0  0  0  0  0  0  0  0
   -1.0131   -2.2886   -0.2515 O   0  0  0  0  0  0  0  0  0  0  0  0
   -0.8814   -3.7009   -0.3569 C   0  0  0  0  0  0  0  0  0  0  0  0
   -2.0188    1.1410   -1.3699 C   0  0  0  0  0  0  0  0  0  0  0  0
   -3.3442    2.4844    0.8656 H   0  0  0  0  0  0  0  0  0  0  0  0
   -4.2319    1.2163    0.0004 H   0  0  0  0  0  0  0  0  0  0  0  0
   -3.6937    0.9170    1.6309 H   0  0  0  0  0  0  0  0  0  0  0  0
   -2.0519    0.6183    2.8255 H   0  0  0  0  0  0  0  0  0  0  0  0
    1.3917   -3.0116   -1.3527 H   0  0  0  0  0  0  0  0  0  0  0  0
    3.3700   -1.5936   -1.4356 H   0  0  0  0  0  0  0  0  0  0  0  0
    4.3627    2.8669    0.0129 H   0  0  0  0  0  0  0  0  0  0  0  0
    4.5179    0.5908   -0.9274 H   0  0  0  0  0  0  0  0  0  0  0  0
   -0.6738   -3.9952   -1.3905 H   0  0  0  0  0  0  0  0  0  0  0  0
   -1.8385   -4.1474   -0.0706 H   0  0  0  0  0  0  0  0  0  0  0  0
   -0.1162   -4.0863    0.3255 H   0  0  0  0  0  0  0  0  0  0  0  0
   -2.8038    0.5817   -1.8901 H   0  0  0  0  0  0  0  0  0  0  0  0
   -2.1588    2.2075   -1.5783 H   0  0  0  0  0  0  0  0  0  0  0  0
   -1.0637    0.8535   -1.8156 H   0  0  0  0  0  0  0  0  0  0  0  0
  1  2  1  0
  2  3  2  3
  3  4  1  0
  4  5  2  0
  3  6  1  0
  6  7  2  0
  7  8  1  0
  8  9  2  0
  9 10  1  0
 10 11  2  0
 11 12  1  0
 12 13  1  0
 13 14  2  0
 13 15  1  0
 15 16  2  0
  7 17  1  0
 17 18  1  0
  2 19  1  0
 11  6  1  0
 16 10  1  0
  1 20  1  0
  1 21  1  0
  1 22  1  0
  4 23  1  0
  8 24  1  0
  9 25  1  0
 15 26  1  0
 16 27  1  0
 18 28  1  0
 18 29  1  0
 18 30  1  0
 19 31  1  0
 19 32  1  0
 19 33  1  0
M  END
>  <Name>  (202) 
Murralongin

>  <PubChem ID>  (202) 
179620

>  <CDB ID>  (202) 
CDB0202

>  <Smiles>  (202) 
CC(=C(C=O)C1=C(C=CC2=C1OC(=O)C=C2)OC)C

>  <Chemical class>  (202) 
7-Oxygenated Coumarins

>  <Natural source>  (202) 
Murraya elongata

>  <Molecular Formula>  (202) 
C15H14O4

>  <InChI-Key>  (202) 
PBAZKMWQUBDDLZ-UHFFFAOYSA-N

>  <Total Molweight>  (202) 
258.272

>  <cLogP>  (202) 
2.2058

>  <cLogS>  (202) 
-2.857

>  <H-Acceptors>  (202) 
4

>  <H-Donors>  (202) 
0

>  <Rotatable Bonds>  (202) 
3

>  <Polar Surface Area>  (202) 
52.6

$$$$
CDB0203
     RDKit          3D

 35 36  0  0  0  0  0  0  0  0999 V2000
    3.1925   -1.6170    0.4110 C   0  0  0  0  0  0  0  0  0  0  0  0
    1.9962   -0.6590    0.5582 C   0  0  0  0  0  0  0  0  0  0  0  0
    1.2982   -0.9491    1.8934 C   0  0  0  0  0  0  0  0  0  0  0  0
    1.0617   -0.8458   -0.6652 C   0  0  0  0  0  0  0  0  0  0  0  0
   -0.2287   -0.0461   -0.6560 C   0  0  0  0  0  0  0  0  0  0  0  0
   -0.2762    1.2765   -1.1376 C   0  0  0  0  0  0  0  0  0  0  0  0
   -1.4812    1.9911   -1.1023 C   0  0  0  0  0  0  0  0  0  0  0  0
   -2.6438    1.4103   -0.5852 C   0  0  0  0  0  0  0  0  0  0  0  0
   -2.6175    0.1034   -0.1068 C   0  0  0  0  0  0  0  0  0  0  0  0
   -1.4171   -0.6066   -0.1523 C   0  0  0  0  0  0  0  0  0  0  0  0
   -1.3770   -1.9397    0.3218 O   0  0  0  0  0  0  0  0  0  0  0  0
   -2.4947   -2.5728    0.8455 C   0  0  0  0  0  0  0  0  0  0  0  0
   -2.4637   -3.7259    1.2585 O   0  0  0  0  0  0  0  0  0  0  0  0
   -3.7404   -1.7906    0.8825 C   0  0  0  0  0  0  0  0  0  0  0  0
   -3.8070   -0.5333    0.4358 C   0  0  0  0  0  0  0  0  0  0  0  0
    0.8920    1.7748   -1.6546 O   0  0  0  0  0  0  0  0  0  0  0  0
    0.9748    3.1866   -1.8204 C   0  0  0  0  0  0  0  0  0  0  0  0
    2.5769    0.7504    0.5540 C   0  0  0  0  0  0  0  0  0  0  0  0
    2.5199    1.5356    1.4964 O   0  0  0  0  0  0  0  0  0  0  0  0
    3.7314   -1.4411   -0.5275 H   0  0  0  0  0  0  0  0  0  0  0  0
    3.9129   -1.4806    1.2262 H   0  0  0  0  0  0  0  0  0  0  0  0
    2.8670   -2.6632    0.4208 H   0  0  0  0  0  0  0  0  0  0  0  0
    0.8765   -1.9597    1.9098 H   0  0  0  0  0  0  0  0  0  0  0  0
    0.4929   -0.2353    2.0970 H   0  0  0  0  0  0  0  0  0  0  0  0
    2.0025   -0.8733    2.7306 H   0  0  0  0  0  0  0  0  0  0  0  0
    1.6079   -0.6088   -1.5892 H   0  0  0  0  0  0  0  0  0  0  0  0
    0.8166   -1.9112   -0.7733 H   0  0  0  0  0  0  0  0  0  0  0  0
   -1.5516    3.0061   -1.4810 H   0  0  0  0  0  0  0  0  0  0  0  0
   -3.5629    1.9912   -0.5685 H   0  0  0  0  0  0  0  0  0  0  0  0
   -4.6038   -2.2979    1.2949 H   0  0  0  0  0  0  0  0  0  0  0  0
   -4.7362    0.0248    0.4730 H   0  0  0  0  0  0  0  0  0  0  0  0
    0.7218    3.7145   -0.8946 H   0  0  0  0  0  0  0  0  0  0  0  0
    0.3452    3.5182   -2.6521 H   0  0  0  0  0  0  0  0  0  0  0  0
    2.0115    3.4317   -2.0703 H   0  0  0  0  0  0  0  0  0  0  0  0
    3.1033    1.0419   -0.3725 H   0  0  0  0  0  0  0  0  0  0  0  0
  1  2  1  0
  2  3  1  0
  2  4  1  0
  4  5  1  0
  5  6  2  0
  6  7  1  0
  7  8  2  0
  8  9  1  0
  9 10  2  0
 10 11  1  0
 11 12  1  0
 12 13  2  0
 12 14  1  0
 14 15  2  0
  6 16  1  0
 16 17  1  0
  2 18  1  0
 18 19  2  0
 10  5  1  0
 15  9  1  0
  1 20  1  0
  1 21  1  0
  1 22  1  0
  3 23  1  0
  3 24  1  0
  3 25  1  0
  4 26  1  0
  4 27  1  0
  7 28  1  0
  8 29  1  0
 14 30  1  0
 15 31  1  0
 17 32  1  0
 17 33  1  0
 17 34  1  0
 18 35  1  0
M  END
>  <Name>  (203) 
Citrusal

>  <PubChem ID>  (203) 
5319433

>  <CDB ID>  (203) 
CDB0203

>  <Smiles>  (203) 
CC(C)(CC1=C(C=CC2=C1OC(=O)C=C2)OC)C=O

>  <Chemical class>  (203) 
7-Oxygenated Coumarins

>  <Natural source>  (203) 
Citrus paradisi

>  <Molecular Formula>  (203) 
C15H16O4

>  <InChI-Key>  (203) 
VCYVDHAWDPDCKW-UHFFFAOYSA-N

>  <Total Molweight>  (203) 
260.288

>  <cLogP>  (203) 
2.2864

>  <cLogS>  (203) 
-3.206

>  <H-Acceptors>  (203) 
4

>  <H-Donors>  (203) 
0

>  <Rotatable Bonds>  (203) 
4

>  <Polar Surface Area>  (203) 
52.6

$$$$
CDB0204
     RDKit          3D

 32 34  0  0  0  0  0  0  0  0999 V2000
   -1.8124   -2.2480    0.7230 C   0  0  0  0  0  0  0  0  0  0  0  0
   -1.9976   -1.2252   -0.3409 C   0  0  0  0  0  0  0  0  0  0  0  0
   -1.2545   -0.1496   -0.6182 C   0  0  0  0  0  0  0  0  0  0  0  0
   -1.9058    0.5271   -1.7555 C   0  0  0  0  0  0  0  0  0  0  0  0
   -1.5174    1.5434   -2.3051 O   0  0  0  0  0  0  0  0  0  0  0  0
   -3.0169   -0.1754   -2.1142 O   0  0  0  0  0  0  0  0  0  0  0  0
   -3.1457   -1.3140   -1.2676 C   0  0  0  0  0  0  0  0  0  0  0  0
   -0.0427    0.3296    0.0410 C   0  0  0  0  0  0  0  0  0  0  0  0
   -0.0455    1.5357    0.7582 C   0  0  0  0  0  0  0  0  0  0  0  0
    1.1139    1.9906    1.3977 C   0  0  0  0  0  0  0  0  0  0  0  0
    2.3033    1.2643    1.2981 C   0  0  0  0  0  0  0  0  0  0  0  0
    2.3351    0.0734    0.5715 C   0  0  0  0  0  0  0  0  0  0  0  0
    1.1651   -0.3798   -0.0440 C   0  0  0  0  0  0  0  0  0  0  0  0
    1.1834   -1.5886   -0.7820 O   0  0  0  0  0  0  0  0  0  0  0  0
    2.3290   -2.3599   -0.9049 C   0  0  0  0  0  0  0  0  0  0  0  0
    2.3447   -3.4201   -1.5186 O   0  0  0  0  0  0  0  0  0  0  0  0
    3.5442   -1.8476   -0.2515 C   0  0  0  0  0  0  0  0  0  0  0  0
    3.5559   -0.7070    0.4443 C   0  0  0  0  0  0  0  0  0  0  0  0
   -1.2277    2.2209    0.8943 O   0  0  0  0  0  0  0  0  0  0  0  0
   -1.1397    3.5453    0.3652 C   0  0  0  0  0  0  0  0  0  0  0  0
   -2.7035   -2.3004    1.3568 H   0  0  0  0  0  0  0  0  0  0  0  0
   -0.9602   -2.0263    1.3719 H   0  0  0  0  0  0  0  0  0  0  0  0
   -1.6477   -3.2336    0.2765 H   0  0  0  0  0  0  0  0  0  0  0  0
   -3.1118   -2.2202   -1.8798 H   0  0  0  0  0  0  0  0  0  0  0  0
   -4.1040   -1.2598   -0.7423 H   0  0  0  0  0  0  0  0  0  0  0  0
    1.0941    2.9023    1.9887 H   0  0  0  0  0  0  0  0  0  0  0  0
    3.1944    1.6368    1.7980 H   0  0  0  0  0  0  0  0  0  0  0  0
    4.4332   -2.4554   -0.3679 H   0  0  0  0  0  0  0  0  0  0  0  0
    4.4645   -0.3502    0.9172 H   0  0  0  0  0  0  0  0  0  0  0  0
   -2.1578    3.8937    0.1670 H   0  0  0  0  0  0  0  0  0  0  0  0
   -0.5806    3.5780   -0.5769 H   0  0  0  0  0  0  0  0  0  0  0  0
   -0.6892    4.2200    1.0998 H   0  0  0  0  0  0  0  0  0  0  0  0
  1  2  1  0
  2  3  2  0
  3  4  1  0
  4  5  2  0
  4  6  1  0
  6  7  1  0
  3  8  1  0
  8  9  2  0
  9 10  1  0
 10 11  2  0
 11 12  1  0
 12 13  2  0
 13 14  1  0
 14 15  1  0
 15 16  2  0
 15 17  1  0
 17 18  2  0
  9 19  1  0
 19 20  1  0
  7  2  1  0
 13  8  1  0
 18 12  1  0
  1 21  1  0
  1 22  1  0
  1 23  1  0
  7 24  1  0
  7 25  1  0
 10 26  1  0
 11 27  1  0
 17 28  1  0
 18 29  1  0
 20 30  1  0
 20 31  1  0
 20 32  1  0
M  END
>  <Name>  (204) 
Microminutin

>  <PubChem ID>  (204) 
5319827

>  <CDB ID>  (204) 
CDB0204

>  <Smiles>  (204) 
CC1=C(C(=O)OC1)C2=C(C=CC3=C2OC(=O)C=C3)OC

>  <Chemical class>  (204) 
7-Oxygenated Coumarins

>  <Natural source>  (204) 
Micromelum minutum

>  <Molecular Formula>  (204) 
C15H12O5

>  <InChI-Key>  (204) 
AZYVCLJYWIHOAD-UHFFFAOYSA-N

>  <Total Molweight>  (204) 
272.255

>  <cLogP>  (204) 
1.1676

>  <cLogS>  (204) 
-2.598

>  <H-Acceptors>  (204) 
5

>  <H-Donors>  (204) 
0

>  <Rotatable Bonds>  (204) 
2

>  <Polar Surface Area>  (204) 
61.83

$$$$
CDB0205
     RDKit          3D

 31 32  0  0  0  0  0  0  0  0999 V2000
   -3.6362   -0.6745   -0.0704 C   0  0  0  0  0  0  0  0  0  0  0  0
   -2.8314    0.5540    0.2505 C   0  0  0  0  0  0  0  0  0  0  0  0
   -1.5812    0.5565    0.7547 C   0  0  0  0  0  0  0  0  0  0  0  0
   -0.7218   -0.6224    1.1337 C   0  0  0  0  0  0  0  0  0  0  0  0
    0.4624   -0.7958    0.2106 C   0  0  0  0  0  0  0  0  0  0  0  0
    0.4310   -1.6997   -0.8584 C   0  0  0  0  0  0  0  0  0  0  0  0
    1.5192   -1.8408   -1.7239 C   0  0  0  0  0  0  0  0  0  0  0  0
    2.6676   -1.0686   -1.5351 C   0  0  0  0  0  0  0  0  0  0  0  0
    2.7279   -0.1555   -0.4823 C   0  0  0  0  0  0  0  0  0  0  0  0
    1.6293   -0.0303    0.3725 C   0  0  0  0  0  0  0  0  0  0  0  0
    1.6756    0.8955    1.4423 O   0  0  0  0  0  0  0  0  0  0  0  0
    2.7832    1.6968    1.6761 C   0  0  0  0  0  0  0  0  0  0  0  0
    2.8298    2.5043    2.5967 O   0  0  0  0  0  0  0  0  0  0  0  0
    3.9224    1.5357    0.7583 C   0  0  0  0  0  0  0  0  0  0  0  0
    3.9053    0.6682   -0.2575 C   0  0  0  0  0  0  0  0  0  0  0  0
   -0.6861   -2.4632   -1.0521 O   0  0  0  0  0  0  0  0  0  0  0  0
   -3.5372    1.8505   -0.0506 C   0  0  0  0  0  0  0  0  0  0  0  0
   -3.1128   -1.6091    0.1379 H   0  0  0  0  0  0  0  0  0  0  0  0
   -4.5613   -0.6804    0.5157 H   0  0  0  0  0  0  0  0  0  0  0  0
   -3.9022   -0.6814   -1.1328 H   0  0  0  0  0  0  0  0  0  0  0  0
   -1.1058    1.5194    0.9429 H   0  0  0  0  0  0  0  0  0  0  0  0
   -1.2950   -1.5522    1.1940 H   0  0  0  0  0  0  0  0  0  0  0  0
   -0.3619   -0.4713    2.1600 H   0  0  0  0  0  0  0  0  0  0  0  0
    1.4901   -2.5469   -2.5488 H   0  0  0  0  0  0  0  0  0  0  0  0
    3.5062   -1.1885   -2.2166 H   0  0  0  0  0  0  0  0  0  0  0  0
    4.7799    2.1668    0.9571 H   0  0  0  0  0  0  0  0  0  0  0  0
    4.7570    0.5675   -0.9212 H   0  0  0  0  0  0  0  0  0  0  0  0
   -0.5784   -2.9878   -1.8617 H   0  0  0  0  0  0  0  0  0  0  0  0
   -3.7902    1.9061   -1.1144 H   0  0  0  0  0  0  0  0  0  0  0  0
   -4.4617    1.9225    0.5317 H   0  0  0  0  0  0  0  0  0  0  0  0
   -2.9238    2.7249    0.1909 H   0  0  0  0  0  0  0  0  0  0  0  0
  1  2  1  0
  2  3  2  3
  3  4  1  0
  4  5  1  0
  5  6  2  0
  6  7  1  0
  7  8  2  0
  8  9  1  0
  9 10  2  0
 10 11  1  0
 11 12  1  0
 12 13  2  0
 12 14  1  0
 14 15  2  0
  6 16  1  0
  2 17  1  0
 10  5  1  0
 15  9  1  0
  1 18  1  0
  1 19  1  0
  1 20  1  0
  3 21  1  0
  4 22  1  0
  4 23  1  0
  7 24  1  0
  8 25  1  0
 14 26  1  0
 15 27  1  0
 16 28  1  0
 17 29  1  0
 17 30  1  0
 17 31  1  0
M  END
>  <Name>  (205) 
Osthenol

>  <PubChem ID>  (205) 
5320318

>  <CDB ID>  (205) 
CDB0205

>  <Smiles>  (205) 
CC(=CCC1=C(C=CC2=C1OC(=O)C=C2)O)C

>  <Chemical class>  (205) 
7-Oxygenated Coumarins

>  <Natural source>  (205) 
Angelica archangelica

>  <Molecular Formula>  (205) 
C14H14O3

>  <InChI-Key>  (205) 
RAKJVIPCCGXHHS-UHFFFAOYSA-N

>  <Total Molweight>  (205) 
230.262

>  <cLogP>  (205) 
3.1742

>  <cLogS>  (205) 
-3.013

>  <H-Acceptors>  (205) 
3

>  <H-Donors>  (205) 
1

>  <Rotatable Bonds>  (205) 
2

>  <Polar Surface Area>  (205) 
46.53

$$$$
CDB0206
     RDKit          3D

 34 35  0  0  0  0  0  0  0  0999 V2000
    3.8398    1.0489   -0.8147 C   0  0  0  0  0  0  0  0  0  0  0  0
    2.9094    0.1553   -0.0363 C   0  0  0  0  0  0  0  0  0  0  0  0
    1.7806    0.6520    0.5080 C   0  0  0  0  0  0  0  0  0  0  0  0
    0.7363   -0.0685    1.3214 C   0  0  0  0  0  0  0  0  0  0  0  0
   -0.5894   -0.1712    0.5959 C   0  0  0  0  0  0  0  0  0  0  0  0
   -0.9142   -1.3035   -0.1767 C   0  0  0  0  0  0  0  0  0  0  0  0
   -2.1429   -1.3586   -0.8488 C   0  0  0  0  0  0  0  0  0  0  0  0
   -3.0485   -0.2945   -0.7757 C   0  0  0  0  0  0  0  0  0  0  0  0
   -2.7367    0.8381   -0.0282 C   0  0  0  0  0  0  0  0  0  0  0  0
   -1.5156    0.8863    0.6447 C   0  0  0  0  0  0  0  0  0  0  0  0
   -1.1799    2.0330    1.4041 O   0  0  0  0  0  0  0  0  0  0  0  0
   -2.0291    3.1249    1.5059 C   0  0  0  0  0  0  0  0  0  0  0  0
   -1.7443    4.1227    2.1577 O   0  0  0  0  0  0  0  0  0  0  0  0
   -3.3104    3.0357    0.7873 C   0  0  0  0  0  0  0  0  0  0  0  0
   -3.6510    1.9651    0.0645 C   0  0  0  0  0  0  0  0  0  0  0  0
    0.0181   -2.3077   -0.1984 O   0  0  0  0  0  0  0  0  0  0  0  0
   -0.1699   -3.3611   -1.1338 C   0  0  0  0  0  0  0  0  0  0  0  0
    3.3586   -1.2770    0.0472 C   0  0  0  0  0  0  0  0  0  0  0  0
    3.9419    0.6859   -1.8427 H   0  0  0  0  0  0  0  0  0  0  0  0
    4.8309    1.0611   -0.3494 H   0  0  0  0  0  0  0  0  0  0  0  0
    3.4824    2.0829   -0.8618 H   0  0  0  0  0  0  0  0  0  0  0  0
    1.5708    1.7137    0.3749 H   0  0  0  0  0  0  0  0  0  0  0  0
    1.0670   -1.0594    1.6459 H   0  0  0  0  0  0  0  0  0  0  0  0
    0.5964    0.4777    2.2634 H   0  0  0  0  0  0  0  0  0  0  0  0
   -2.4301   -2.2237   -1.4382 H   0  0  0  0  0  0  0  0  0  0  0  0
   -3.9930   -0.3666   -1.3095 H   0  0  0  0  0  0  0  0  0  0  0  0
   -3.9633    3.8949    0.8799 H   0  0  0  0  0  0  0  0  0  0  0  0
   -4.6005    1.9214   -0.4574 H   0  0  0  0  0  0  0  0  0  0  0  0
   -1.0380   -3.9719   -0.8659 H   0  0  0  0  0  0  0  0  0  0  0  0
   -0.2547   -2.9769   -2.1558 H   0  0  0  0  0  0  0  0  0  0  0  0
    0.7142   -4.0047   -1.0931 H   0  0  0  0  0  0  0  0  0  0  0  0
    2.6875   -1.9151    0.6245 H   0  0  0  0  0  0  0  0  0  0  0  0
    4.3455   -1.3335    0.5186 H   0  0  0  0  0  0  0  0  0  0  0  0
    3.4323   -1.7058   -0.9578 H   0  0  0  0  0  0  0  0  0  0  0  0
  1  2  1  0
  2  3  2  3
  3  4  1  0
  4  5  1  0
  5  6  2  0
  6  7  1  0
  7  8  2  0
  8  9  1  0
  9 10  2  0
 10 11  1  0
 11 12  1  0
 12 13  2  0
 12 14  1  0
 14 15  2  0
  6 16  1  0
 16 17  1  0
  2 18  1  0
 10  5  1  0
 15  9  1  0
  1 19  1  0
  1 20  1  0
  1 21  1  0
  3 22  1  0
  4 23  1  0
  4 24  1  0
  7 25  1  0
  8 26  1  0
 14 27  1  0
 15 28  1  0
 17 29  1  0
 17 30  1  0
 17 31  1  0
 18 32  1  0
 18 33  1  0
 18 34  1  0
M  END
>  <Name>  (206) 
Osthol

>  <PubChem ID>  (206) 
10228

>  <CDB ID>  (206) 
CDB0206

>  <Smiles>  (206) 
CC(=CCC1=C(C=CC2=C1OC(=O)C=C2)OC)C

>  <Chemical class>  (206) 
7-Oxygenated Coumarins

>  <Natural source>  (206) 
Imperatoria ostruthium

>  <Molecular Formula>  (206) 
C15H16O3

>  <InChI-Key>  (206) 
MBRLOUHOWLUMFF-UHFFFAOYSA-N

>  <Total Molweight>  (206) 
244.289

>  <cLogP>  (206) 
3.4499

>  <cLogS>  (206) 
-3.327

>  <H-Acceptors>  (206) 
3

>  <H-Donors>  (206) 
0

>  <Rotatable Bonds>  (206) 
3

>  <Polar Surface Area>  (206) 
35.53

$$$$
CDB0207
     RDKit          3D

 81 87  0  0  0  0  0  0  0  0999 V2000
   -5.5551    0.4026    4.5210 C   0  0  0  0  0  0  0  0  0  0  0  0
   -4.4028   -0.2217    3.7901 C   0  0  0  0  0  0  0  0  0  0  0  0
   -3.5241    0.5706    3.0384 C   0  0  0  0  0  0  0  0  0  0  0  0
   -2.4123    0.0168    2.3656 C   0  0  0  0  0  0  0  0  0  0  0  0
   -2.1861   -1.3612    2.4931 C   0  0  0  0  0  0  0  0  0  0  0  0
   -3.0642   -2.1557    3.2479 C   0  0  0  0  0  0  0  0  0  0  0  0
   -4.1592   -1.5912    3.8944 C   0  0  0  0  0  0  0  0  0  0  0  0
   -2.9107   -3.5080    3.4032 O   0  0  0  0  0  0  0  0  0  0  0  0
   -1.0060   -1.9745    1.8513 C   0  0  0  0  0  0  0  0  0  0  0  0
   -0.8675   -3.1981    1.8563 O   0  0  0  0  0  0  0  0  0  0  0  0
    0.0398   -1.1236    1.2450 C   0  0  0  0  0  0  0  0  0  0  0  0
   -0.1874    0.2514    1.1187 C   0  0  0  0  0  0  0  0  0  0  0  0
   -1.5262    0.8833    1.4812 C   0  0  0  0  0  0  0  0  0  0  0  0
   -2.2706    1.3919    0.1818 C   0  0  0  0  0  0  0  0  0  0  0  0
   -2.9532    0.2793   -0.6401 C   0  0  0  0  0  0  0  0  0  0  0  0
   -3.7177    0.8823   -1.8243 C   0  0  0  0  0  0  0  0  0  0  0  0
   -4.6623    1.9896   -1.3575 C   0  0  0  0  0  0  0  0  0  0  0  0
   -3.8698    3.0330   -0.5559 C   0  0  0  0  0  0  0  0  0  0  0  0
   -3.2235    2.4143    0.5675 O   0  0  0  0  0  0  0  0  0  0  0  0
   -4.7885    4.1552   -0.0513 C   0  0  0  0  0  0  0  0  0  0  0  0
   -5.2865    4.9541   -1.1173 O   0  0  0  0  0  0  0  0  0  0  0  0
   -5.2992    2.5833   -2.4937 O   0  0  0  0  0  0  0  0  0  0  0  0
   -4.4878   -0.1280   -2.4907 O   0  0  0  0  0  0  0  0  0  0  0  0
   -2.0251   -0.6878   -1.1391 O   0  0  0  0  0  0  0  0  0  0  0  0
   -1.1808    2.0401    2.2710 O   0  0  0  0  0  0  0  0  0  0  0  0
    0.8493    1.0423    0.5934 C   0  0  0  0  0  0  0  0  0  0  0  0
    2.0553    0.4749    0.1759 C   0  0  0  0  0  0  0  0  0  0  0  0
    2.2886   -0.9121    0.2672 C   0  0  0  0  0  0  0  0  0  0  0  0
    1.2585   -1.6967    0.8118 C   0  0  0  0  0  0  0  0  0  0  0  0
    1.4782   -3.0511    0.9053 O   0  0  0  0  0  0  0  0  0  0  0  0
    3.6374   -1.4784   -0.2520 C   0  0  0  0  0  0  0  0  0  0  0  0
    4.8041   -0.8377    0.4952 C   0  0  0  0  0  0  0  0  0  0  0  0
    5.7202    0.0090   -0.1427 C   0  0  0  0  0  0  0  0  0  0  0  0
    6.7474    0.6199    0.5967 C   0  0  0  0  0  0  0  0  0  0  0  0
    6.8809    0.3838    1.9614 C   0  0  0  0  0  0  0  0  0  0  0  0
    5.9884   -0.4664    2.6048 C   0  0  0  0  0  0  0  0  0  0  0  0
    4.9599   -1.0699    1.8805 C   0  0  0  0  0  0  0  0  0  0  0  0
    7.6672    1.4714    0.0436 O   0  0  0  0  0  0  0  0  0  0  0  0
    5.6042    0.2570   -1.5933 C   0  0  0  0  0  0  0  0  0  0  0  0
    6.3460    1.0762   -2.1364 O   0  0  0  0  0  0  0  0  0  0  0  0
    4.6123   -0.4813   -2.3996 C   0  0  0  0  0  0  0  0  0  0  0  0
    3.6988   -1.3350   -1.7710 C   0  0  0  0  0  0  0  0  0  0  0  0
    2.7889   -2.0563   -2.5796 C   0  0  0  0  0  0  0  0  0  0  0  0
    2.7663   -1.9113   -3.9725 C   0  0  0  0  0  0  0  0  0  0  0  0
    3.6819   -1.0477   -4.5756 C   0  0  0  0  0  0  0  0  0  0  0  0
    4.5920   -0.3377   -3.7964 C   0  0  0  0  0  0  0  0  0  0  0  0
    5.4453    0.4890   -4.4789 O   0  0  0  0  0  0  0  0  0  0  0  0
    1.8194   -2.7211   -4.8075 C   0  0  0  0  0  0  0  0  0  0  0  0
    3.8404   -2.8792   -0.0363 O   0  0  0  0  0  0  0  0  0  0  0  0
   -5.2330    0.7351    5.5126 H   0  0  0  0  0  0  0  0  0  0  0  0
   -6.3781   -0.3104    4.6370 H   0  0  0  0  0  0  0  0  0  0  0  0
   -5.9469    1.2627    3.9678 H   0  0  0  0  0  0  0  0  0  0  0  0
   -3.7168    1.6412    2.9794 H   0  0  0  0  0  0  0  0  0  0  0  0
   -4.8156   -2.2282    4.4832 H   0  0  0  0  0  0  0  0  0  0  0  0
   -2.1333   -3.7884    2.8729 H   0  0  0  0  0  0  0  0  0  0  0  0
   -1.5309    1.8980   -0.4535 H   0  0  0  0  0  0  0  0  0  0  0  0
   -3.6746   -0.2685   -0.0235 H   0  0  0  0  0  0  0  0  0  0  0  0
   -3.0199    1.2667   -2.5785 H   0  0  0  0  0  0  0  0  0  0  0  0
   -5.4541    1.5524   -0.7359 H   0  0  0  0  0  0  0  0  0  0  0  0
   -3.1098    3.4930   -1.2021 H   0  0  0  0  0  0  0  0  0  0  0  0
   -4.2414    4.8098    0.6356 H   0  0  0  0  0  0  0  0  0  0  0  0
   -5.6352    3.7463    0.5112 H   0  0  0  0  0  0  0  0  0  0  0  0
   -5.5811    4.3400   -1.8244 H   0  0  0  0  0  0  0  0  0  0  0  0
   -5.6150    1.8268   -3.0330 H   0  0  0  0  0  0  0  0  0  0  0  0
   -3.9381   -0.9371   -2.5047 H   0  0  0  0  0  0  0  0  0  0  0  0
   -1.3998   -0.2517   -1.7482 H   0  0  0  0  0  0  0  0  0  0  0  0
   -1.8728    2.7042    2.0866 H   0  0  0  0  0  0  0  0  0  0  0  0
    0.7282    2.1228    0.5118 H   0  0  0  0  0  0  0  0  0  0  0  0
    2.8184    1.1410   -0.2259 H   0  0  0  0  0  0  0  0  0  0  0  0
    0.6623   -3.4720    1.2683 H   0  0  0  0  0  0  0  0  0  0  0  0
    7.6836    0.8595    2.5187 H   0  0  0  0  0  0  0  0  0  0  0  0
    6.0928   -0.6601    3.6695 H   0  0  0  0  0  0  0  0  0  0  0  0
    4.2715   -1.7346    2.4015 H   0  0  0  0  0  0  0  0  0  0  0  0
    7.4589    1.5618   -0.9122 H   0  0  0  0  0  0  0  0  0  0  0  0
    2.0914   -2.7493   -2.1078 H   0  0  0  0  0  0  0  0  0  0  0  0
    3.7014   -0.9273   -5.6565 H   0  0  0  0  0  0  0  0  0  0  0  0
    6.0304    0.9280   -3.8226 H   0  0  0  0  0  0  0  0  0  0  0  0
    2.2747   -3.6827   -5.0635 H   0  0  0  0  0  0  0  0  0  0  0  0
    1.5636   -2.1932   -5.7323 H   0  0  0  0  0  0  0  0  0  0  0  0
    0.8836   -2.9036   -4.2689 H   0  0  0  0  0  0  0  0  0  0  0  0
    3.0316   -3.2221    0.3873 H   0  0  0  0  0  0  0  0  0  0  0  0
  1  2  1  0
  2  3  2  0
  3  4  1  0
  4  5  2  0
  5  6  1  0
  6  7  2  0
  6  8  1  0
  5  9  1  0
  9 10  2  0
  9 11  1  0
 11 12  2  0
 12 13  1  0
 13 14  1  0
 14 15  1  0
 15 16  1  0
 16 17  1  0
 17 18  1  0
 18 19  1  0
 18 20  1  0
 20 21  1  0
 17 22  1  0
 16 23  1  0
 15 24  1  0
 13 25  1  0
 12 26  1  0
 26 27  2  0
 27 28  1  0
 28 29  2  0
 29 30  1  0
 28 31  1  0
 31 32  1  0
 32 33  1  0
 33 34  2  0
 34 35  1  0
 35 36  2  0
 36 37  1  0
 34 38  1  0
 33 39  1  0
 39 40  2  0
 39 41  1  0
 41 42  2  0
 42 43  1  0
 43 44  2  0
 44 45  1  0
 45 46  2  0
 46 47  1  0
 44 48  1  0
 31 49  1  0
  7  2  1  0
 13  4  1  0
 29 11  1  0
 19 14  1  0
 42 31  1  0
 37 32  2  0
 46 41  1  0
  1 50  1  0
  1 51  1  0
  1 52  1  0
  3 53  1  0
  7 54  1  0
  8 55  1  0
 14 56  1  0
 15 57  1  0
 16 58  1  0
 17 59  1  0
 18 60  1  0
 20 61  1  0
 20 62  1  0
 21 63  1  0
 22 64  1  0
 23 65  1  0
 24 66  1  0
 25 67  1  0
 26 68  1  0
 27 69  1  0
 30 70  1  0
 35 71  1  0
 36 72  1  0
 37 73  1  0
 38 74  1  0
 43 75  1  0
 45 76  1  0
 47 77  1  0
 48 78  1  0
 48 79  1  0
 48 80  1  0
 49 81  1  0
M  END
>  <Name>  (207) 
Ramosin

>  <PubChem ID>  (207) 
363268

>  <CDB ID>  (207) 
CDB0207

>  <Smiles>  (207) 
CC1=CC2=C(C(=C1)O)C(=O)C3=C(C2(C4C(C(C(C(O4)CO)O)O)O)O)C=CC(=C3O)C5(C6=C(C(=CC=C6)O)C(=O)C7=C5C=C(C=C7O)C)O

>  <Chemical class>  (207) 
7-Oxygenated Coumarins

>  <Natural source>  (207) 
Haplophyllum ramosissimum

>  <Molecular Formula>  (207) 
C36H32O13

>  <InChI-Key>  (207) 
RYMXHLGOQKJLJM-UHFFFAOYSA-N

>  <Total Molweight>  (207) 
672.637

>  <cLogP>  (207) 
1.7055

>  <cLogS>  (207) 
-5.263

>  <H-Acceptors>  (207) 
13

>  <H-Donors>  (207) 
10

>  <Rotatable Bonds>  (207) 
3

>  <Polar Surface Area>  (207) 
245.67

$$$$
CDB0208
     RDKit          3D

 45 47  0  0  0  0  0  0  0  0999 V2000
   -2.0492   -2.5012   -2.4341 C   0  0  0  0  0  0  0  0  0  0  0  0
   -2.2518   -1.7768   -1.1287 C   0  0  0  0  0  0  0  0  0  0  0  0
   -3.6901   -1.6758   -0.6997 C   0  0  0  0  0  0  0  0  0  0  0  0
   -1.1978   -1.2750   -0.4547 C   0  0  0  0  0  0  0  0  0  0  0  0
   -1.1902   -0.5267    0.8526 C   0  0  0  0  0  0  0  0  0  0  0  0
   -0.7520    0.9134    0.6826 C   0  0  0  0  0  0  0  0  0  0  0  0
    0.6072    1.2785    0.7495 C   0  0  0  0  0  0  0  0  0  0  0  0
    1.4885    0.2593    0.9983 O   0  0  0  0  0  0  0  0  0  0  0  0
    2.8834    0.5560    0.9634 C   0  0  0  0  0  0  0  0  0  0  0  0
    3.6292   -0.7172    1.1952 C   0  0  2  0  0  0  0  0  0  0  0  0
    4.8677   -0.8332    0.4781 O   0  0  0  0  0  0  0  0  0  0  0  0
    3.8416   -1.7764    0.1269 C   0  0  0  0  0  0  0  0  0  0  0  0
    4.1367   -3.1791    0.5592 C   0  0  0  0  0  0  0  0  0  0  0  0
    3.3053   -1.6083   -1.2602 C   0  0  0  0  0  0  0  0  0  0  0  0
    0.9772    2.6178    0.5690 C   0  0  0  0  0  0  0  0  0  0  0  0
    0.0134    3.5979    0.3057 C   0  0  0  0  0  0  0  0  0  0  0  0
   -1.3324    3.2505    0.2196 C   0  0  0  0  0  0  0  0  0  0  0  0
   -1.6971    1.9176    0.4084 C   0  0  0  0  0  0  0  0  0  0  0  0
   -3.0597    1.5464    0.3227 O   0  0  0  0  0  0  0  0  0  0  0  0
   -4.0593    2.4643    0.0397 C   0  0  0  0  0  0  0  0  0  0  0  0
   -5.2400    2.1476   -0.0462 O   0  0  0  0  0  0  0  0  0  0  0  0
   -3.6379    3.8619   -0.1498 C   0  0  0  0  0  0  0  0  0  0  0  0
   -2.3593    4.2402   -0.0650 C   0  0  0  0  0  0  0  0  0  0  0  0
   -2.5890   -1.9908   -3.2385 H   0  0  0  0  0  0  0  0  0  0  0  0
   -0.9940   -2.5523   -2.7229 H   0  0  0  0  0  0  0  0  0  0  0  0
   -2.4230   -3.5277   -2.3600 H   0  0  0  0  0  0  0  0  0  0  0  0
   -4.1258   -2.6766   -0.6106 H   0  0  0  0  0  0  0  0  0  0  0  0
   -4.2647   -1.1152   -1.4446 H   0  0  0  0  0  0  0  0  0  0  0  0
   -3.8277   -1.1778    0.2615 H   0  0  0  0  0  0  0  0  0  0  0  0
   -0.2030   -1.4157   -0.8768 H   0  0  0  0  0  0  0  0  0  0  0  0
   -2.1577   -0.5594    1.3623 H   0  0  0  0  0  0  0  0  0  0  0  0
   -0.5145   -1.0456    1.5444 H   0  0  0  0  0  0  0  0  0  0  0  0
    3.1579    1.0033    0.0013 H   0  0  0  0  0  0  0  0  0  0  0  0
    3.1355    1.2551    1.7695 H   0  0  0  0  0  0  0  0  0  0  0  0
    3.6033   -1.0255    2.2326 H   0  0  0  0  0  0  0  0  0  0  0  0
    3.2171   -3.7729    0.5689 H   0  0  0  0  0  0  0  0  0  0  0  0
    4.8451   -3.6527   -0.1283 H   0  0  0  0  0  0  0  0  0  0  0  0
    4.5713   -3.2150    1.5639 H   0  0  0  0  0  0  0  0  0  0  0  0
    3.3271   -0.5687   -1.5997 H   0  0  0  0  0  0  0  0  0  0  0  0
    2.2703   -1.9607   -1.3081 H   0  0  0  0  0  0  0  0  0  0  0  0
    3.8964   -2.1934   -1.9727 H   0  0  0  0  0  0  0  0  0  0  0  0
    2.0131    2.9377    0.6253 H   0  0  0  0  0  0  0  0  0  0  0  0
    0.3316    4.6284    0.1660 H   0  0  0  0  0  0  0  0  0  0  0  0
   -4.4308    4.5681   -0.3630 H   0  0  0  0  0  0  0  0  0  0  0  0
   -2.0717    5.2759   -0.2086 H   0  0  0  0  0  0  0  0  0  0  0  0
  1  2  1  0
  2  3  1  0
  2  4  2  3
  4  5  1  0
  5  6  1  0
  6  7  2  0
  7  8  1  0
  8  9  1  0
  9 10  1  0
 10 11  1  0
 11 12  1  0
 12 13  1  0
 12 14  1  0
  7 15  1  0
 15 16  2  0
 16 17  1  0
 17 18  2  0
 18 19  1  0
 19 20  1  0
 20 21  2  0
 20 22  1  0
 22 23  2  0
 18  6  1  0
 12 10  1  0
 23 17  1  0
  1 24  1  0
  1 25  1  0
  1 26  1  0
  3 27  1  0
  3 28  1  0
  3 29  1  0
  4 30  1  0
  5 31  1  0
  5 32  1  0
  9 33  1  0
  9 34  1  0
 10 35  1  1
 13 36  1  0
 13 37  1  0
 13 38  1  0
 14 39  1  0
 14 40  1  0
 14 41  1  0
 15 42  1  0
 16 43  1  0
 22 44  1  0
 23 45  1  0
M  END
>  <Name>  (208) 
Myrsellin

>  <PubChem ID>  (208) 
188480

>  <CDB ID>  (208) 
CDB0208

>  <Smiles>  (208) 
CC(C)=CCC1=C(OC[C@@H]2OC2(C)C)C=CC2=C1OC(=O)C=C2

>  <Chemical class>  (208) 
7-Oxygenated Coumarins

>  <Natural source>  (208) 
Myrtopsis sellingii

>  <Molecular Formula>  (208) 
C19H22O4

>  <InChI-Key>  (208) 
XHFJLTKCCPBDNN-INIZCTEOSA-N

>  <Total Molweight>  (208) 
314.38

>  <cLogP>  (208) 
3.6884

>  <cLogS>  (208) 
-3.959

>  <H-Acceptors>  (208) 
4

>  <H-Donors>  (208) 
0

>  <Rotatable Bonds>  (208) 
5

>  <Polar Surface Area>  (208) 
48.06

$$$$
CDB0209
     RDKit          3D

 48 49  0  0  0  0  0  0  0  0999 V2000
   -2.5611    2.9630   -1.4028 C   0  0  0  0  0  0  0  0  0  0  0  0
   -2.0719    2.2591   -0.1637 C   0  0  0  0  0  0  0  0  0  0  0  0
   -1.0257    3.0185    0.6027 C   0  0  0  0  0  0  0  0  0  0  0  0
   -2.5617    1.0489    0.1724 C   0  0  0  0  0  0  0  0  0  0  0  0
   -2.2097    0.1911    1.3605 C   0  0  0  0  0  0  0  0  0  0  0  0
   -1.5382   -1.1049    0.9540 C   0  0  0  0  0  0  0  0  0  0  0  0
   -0.1371   -1.1870    0.8184 C   0  0  0  0  0  0  0  0  0  0  0  0
    0.5533   -0.0447    1.1135 O   0  0  0  0  0  0  0  0  0  0  0  0
    1.9502    0.0667    0.8148 C   0  0  0  0  0  0  0  0  0  0  0  0
    2.1869    0.4283   -0.6614 C   0  0  2  0  0  0  0  0  0  0  0  0
    2.3625   -0.7819   -1.4267 O   0  0  0  0  0  0  0  0  0  0  0  0
    3.4327    1.3198   -0.9196 C   0  0  0  0  0  0  0  0  0  0  0  0
    3.2354    2.7446   -0.3969 C   0  0  0  0  0  0  0  0  0  0  0  0
    4.7233    0.7106   -0.3629 C   0  0  0  0  0  0  0  0  0  0  0  0
    3.5813    1.3983   -2.3542 O   0  0  0  0  0  0  0  0  0  0  0  0
    0.4486   -2.3935    0.4219 C   0  0  0  0  0  0  0  0  0  0  0  0
   -0.3375   -3.5172    0.1416 C   0  0  0  0  0  0  0  0  0  0  0  0
   -1.7228   -3.4480    0.2562 C   0  0  0  0  0  0  0  0  0  0  0  0
   -2.3048   -2.2462    0.6576 C   0  0  0  0  0  0  0  0  0  0  0  0
   -3.7129   -2.1533    0.7694 O   0  0  0  0  0  0  0  0  0  0  0  0
   -4.5464   -3.2268    0.4923 C   0  0  0  0  0  0  0  0  0  0  0  0
   -5.7662   -3.1546    0.5853 O   0  0  0  0  0  0  0  0  0  0  0  0
   -3.8965   -4.4798    0.0758 C   0  0  0  0  0  0  0  0  0  0  0  0
   -2.5702   -4.5925   -0.0374 C   0  0  0  0  0  0  0  0  0  0  0  0
   -3.3190    2.3832   -1.9401 H   0  0  0  0  0  0  0  0  0  0  0  0
   -1.7284    3.1395   -2.0916 H   0  0  0  0  0  0  0  0  0  0  0  0
   -3.0062    3.9280   -1.1394 H   0  0  0  0  0  0  0  0  0  0  0  0
   -0.6717    2.5007    1.4956 H   0  0  0  0  0  0  0  0  0  0  0  0
   -0.1539    3.2009   -0.0342 H   0  0  0  0  0  0  0  0  0  0  0  0
   -1.4249    3.9863    0.9240 H   0  0  0  0  0  0  0  0  0  0  0  0
   -3.3222    0.6056   -0.4713 H   0  0  0  0  0  0  0  0  0  0  0  0
   -3.1331   -0.0269    1.9121 H   0  0  0  0  0  0  0  0  0  0  0  0
   -1.5898    0.7170    2.0926 H   0  0  0  0  0  0  0  0  0  0  0  0
    2.5036   -0.8229    1.1335 H   0  0  0  0  0  0  0  0  0  0  0  0
    2.2936    0.8826    1.4573 H   0  0  0  0  0  0  0  0  0  0  0  0
    1.2968    0.9149   -1.0794 H   0  0  0  0  0  0  0  0  0  0  0  0
    2.6397   -0.4644   -2.3114 H   0  0  0  0  0  0  0  0  0  0  0  0
    4.0710    3.3877   -0.6966 H   0  0  0  0  0  0  0  0  0  0  0  0
    3.1552    2.7825    0.6930 H   0  0  0  0  0  0  0  0  0  0  0  0
    2.3340    3.1937   -0.8286 H   0  0  0  0  0  0  0  0  0  0  0  0
    4.9019   -0.2866   -0.7799 H   0  0  0  0  0  0  0  0  0  0  0  0
    5.5915    1.3184   -0.6434 H   0  0  0  0  0  0  0  0  0  0  0  0
    4.7026    0.6335    0.7284 H   0  0  0  0  0  0  0  0  0  0  0  0
    4.3456    1.9715   -2.5439 H   0  0  0  0  0  0  0  0  0  0  0  0
    1.5225   -2.4954    0.3044 H   0  0  0  0  0  0  0  0  0  0  0  0
    0.1519   -4.4352   -0.1742 H   0  0  0  0  0  0  0  0  0  0  0  0
   -4.5610   -5.3084   -0.1353 H   0  0  0  0  0  0  0  0  0  0  0  0
   -2.1112   -5.5247   -0.3476 H   0  0  0  0  0  0  0  0  0  0  0  0
  1  2  1  0
  2  3  1  0
  2  4  2  3
  4  5  1  0
  5  6  1  0
  6  7  2  0
  7  8  1  0
  8  9  1  0
  9 10  1  0
 10 11  1  0
 10 12  1  0
 12 13  1  0
 12 14  1  0
 12 15  1  0
  7 16  1  0
 16 17  2  0
 17 18  1  0
 18 19  2  0
 19 20  1  0
 20 21  1  0
 21 22  2  0
 21 23  1  0
 23 24  2  0
 19  6  1  0
 24 18  1  0
  1 25  1  0
  1 26  1  0
  1 27  1  0
  3 28  1  0
  3 29  1  0
  3 30  1  0
  4 31  1  0
  5 32  1  0
  5 33  1  0
  9 34  1  0
  9 35  1  0
 10 36  1  6
 11 37  1  0
 13 38  1  0
 13 39  1  0
 13 40  1  0
 14 41  1  0
 14 42  1  0
 14 43  1  0
 15 44  1  0
 16 45  1  0
 17 46  1  0
 23 47  1  0
 24 48  1  0
M  END
>  <Name>  (209) 
Myrsellinol

>  <PubChem ID>  (209) 
188481

>  <CDB ID>  (209) 
CDB0209

>  <Smiles>  (209) 
CC(C)=CCC1=C(OC[C@H](O)C(C)(C)O)C=CC2=C1OC(=O)C=C2

>  <Chemical class>  (209) 
7-Oxygenated Coumarins

>  <Natural source>  (209) 
Myrtopsis sellingii

>  <Molecular Formula>  (209) 
C19H24O5

>  <InChI-Key>  (209) 
WCRIXDCUKSRGRM-INIZCTEOSA-N

>  <Total Molweight>  (209) 
332.395

>  <cLogP>  (209) 
3.102

>  <cLogS>  (209) 
-3.478

>  <H-Acceptors>  (209) 
5

>  <H-Donors>  (209) 
2

>  <Rotatable Bonds>  (209) 
6

>  <Polar Surface Area>  (209) 
75.99

$$$$
CDB0210
     RDKit          3D

 52 54  0  0  0  0  0  0  0  0999 V2000
    1.6625   -2.9651   -1.4428 C   0  0  0  0  0  0  0  0  0  0  0  0
    2.5018   -2.2237   -0.4377 C   0  0  0  0  0  0  0  0  0  0  0  0
    3.0556   -3.0927    0.6615 C   0  0  0  0  0  0  0  0  0  0  0  0
    2.7835   -0.9057   -0.4752 C   0  0  0  0  0  0  0  0  0  0  0  0
    2.3428    0.1132   -1.4948 C   0  0  0  0  0  0  0  0  0  0  0  0
    1.7505    1.3527   -0.8571 C   0  0  0  0  0  0  0  0  0  0  0  0
    2.5589    2.4554   -0.5304 C   0  0  0  0  0  0  0  0  0  0  0  0
    3.9454    2.3706   -0.8024 O   0  0  0  0  0  0  0  0  0  0  0  0
    4.8191    3.4087   -0.5138 C   0  0  0  0  0  0  0  0  0  0  0  0
    6.0214    3.3407   -0.7405 O   0  0  0  0  0  0  0  0  0  0  0  0
    4.2341    4.6173    0.0885 C   0  0  0  0  0  0  0  0  0  0  0  0
    2.9296    4.7224    0.3570 C   0  0  0  0  0  0  0  0  0  0  0  0
    2.0392    3.6142    0.0504 C   0  0  0  0  0  0  0  0  0  0  0  0
    0.6728    3.6835    0.3136 C   0  0  0  0  0  0  0  0  0  0  0  0
   -0.1519    2.5962    0.0129 C   0  0  0  0  0  0  0  0  0  0  0  0
    0.3827    1.4271   -0.5435 C   0  0  0  0  0  0  0  0  0  0  0  0
   -0.3948    0.3442   -0.8606 O   0  0  0  0  0  0  0  0  0  0  0  0
   -1.3866   -0.0124    0.1155 C   0  0  0  0  0  0  0  0  0  0  0  0
   -2.6264    0.6411   -0.1749 O   0  0  0  0  0  0  0  0  0  0  0  0
   -3.7455    0.2258    0.6254 C   0  0  0  0  0  0  0  0  0  0  0  0
   -4.8760   -0.1813   -0.3352 C   0  0  0  0  0  0  0  0  0  0  0  0
   -4.4644   -1.2441   -1.1990 O   0  0  0  0  0  0  0  0  0  0  0  0
   -3.4000   -0.8383    1.6794 C   0  0  0  0  0  0  0  0  0  0  0  0
   -4.5611   -1.2933    2.3788 O   0  0  0  0  0  0  0  0  0  0  0  0
   -2.6512   -2.0211    1.0599 C   0  0  0  0  0  0  0  0  0  0  0  0
   -2.1066   -2.8040    2.1387 O   0  0  0  0  0  0  0  0  0  0  0  0
   -1.5398   -1.5550    0.1051 C   0  0  0  0  0  0  0  0  0  0  0  0
   -1.8488   -2.0487   -1.2123 O   0  0  0  0  0  0  0  0  0  0  0  0
    0.8652   -3.5177   -0.9351 H   0  0  0  0  0  0  0  0  0  0  0  0
    1.1856   -2.3175   -2.1804 H   0  0  0  0  0  0  0  0  0  0  0  0
    2.2824   -3.6859   -1.9863 H   0  0  0  0  0  0  0  0  0  0  0  0
    3.6734   -2.5283    1.3679 H   0  0  0  0  0  0  0  0  0  0  0  0
    3.6772   -3.8887    0.2387 H   0  0  0  0  0  0  0  0  0  0  0  0
    2.2389   -3.5518    1.2284 H   0  0  0  0  0  0  0  0  0  0  0  0
    3.4305   -0.4982    0.3021 H   0  0  0  0  0  0  0  0  0  0  0  0
    3.2147    0.3921   -2.0997 H   0  0  0  0  0  0  0  0  0  0  0  0
    1.6290   -0.2909   -2.2181 H   0  0  0  0  0  0  0  0  0  0  0  0
    4.9286    5.4205    0.3022 H   0  0  0  0  0  0  0  0  0  0  0  0
    2.5206    5.6234    0.8006 H   0  0  0  0  0  0  0  0  0  0  0  0
    0.2320    4.5785    0.7456 H   0  0  0  0  0  0  0  0  0  0  0  0
   -1.2187    2.6871    0.1983 H   0  0  0  0  0  0  0  0  0  0  0  0
   -1.0482    0.2915    1.1164 H   0  0  0  0  0  0  0  0  0  0  0  0
   -4.1007    1.1165    1.1586 H   0  0  0  0  0  0  0  0  0  0  0  0
   -5.1332    0.6676   -0.9780 H   0  0  0  0  0  0  0  0  0  0  0  0
   -5.7726   -0.4949    0.2078 H   0  0  0  0  0  0  0  0  0  0  0  0
   -5.2222   -1.4275   -1.7852 H   0  0  0  0  0  0  0  0  0  0  0  0
   -2.7602   -0.3801    2.4449 H   0  0  0  0  0  0  0  0  0  0  0  0
   -4.2530   -2.0392    2.9318 H   0  0  0  0  0  0  0  0  0  0  0  0
   -3.3592   -2.6905    0.5582 H   0  0  0  0  0  0  0  0  0  0  0  0
   -1.6976   -3.5893    1.7269 H   0  0  0  0  0  0  0  0  0  0  0  0
   -0.5799   -2.0078    0.3725 H   0  0  0  0  0  0  0  0  0  0  0  0
   -2.6795   -1.5967   -1.4845 H   0  0  0  0  0  0  0  0  0  0  0  0
  1  2  1  0
  2  3  1  0
  2  4  2  3
  4  5  1  0
  5  6  1  0
  6  7  1  0
  7  8  1  0
  8  9  1  0
  9 10  2  0
  9 11  1  0
 11 12  2  0
 12 13  1  0
 13 14  1  0
 14 15  2  0
 15 16  1  0
 16 17  1  0
 17 18  1  0
 18 19  1  0
 19 20  1  0
 20 21  1  0
 21 22  1  0
 20 23  1  0
 23 24  1  0
 23 25  1  0
 25 26  1  0
 25 27  1  0
 27 28  1  0
 16  6  2  0
 27 18  1  0
 13  7  2  0
  1 29  1  0
  1 30  1  0
  1 31  1  0
  3 32  1  0
  3 33  1  0
  3 34  1  0
  4 35  1  0
  5 36  1  0
  5 37  1  0
 11 38  1  0
 12 39  1  0
 14 40  1  0
 15 41  1  0
 18 42  1  0
 20 43  1  0
 21 44  1  0
 21 45  1  0
 22 46  1  0
 23 47  1  0
 24 48  1  0
 25 49  1  0
 26 50  1  0
 27 51  1  0
 28 52  1  0
M  END
>  <Name>  (210) 
Vellein

>  <PubChem ID>  (210) 
447275638

>  <CDB ID>  (210) 
CDB0210

>  <Smiles>  (210) 
CC(C)=CCC1=C2OC(=O)C=CC2=CC=C1OC1OC(CO)C(O)C(O)C1O

>  <Chemical class>  (210) 
7-Oxygenated Coumarins

>  <Natural source>  (210) 
Velleia discophora

>  <Molecular Formula>  (210) 
C20H24O8

>  <InChI-Key>  (210) 
QPAYBYCPZSAASE-UHFFFAOYSA-N

>  <Total Molweight>  (210) 
392.403

>  <cLogP>  (210) 
1.1849

>  <cLogS>  (210) 
-2.899

>  <H-Acceptors>  (210) 
8

>  <H-Donors>  (210) 
4

>  <Rotatable Bonds>  (210) 
5

>  <Polar Surface Area>  (210) 
125.68

$$$$
CDB0211
     RDKit          3D

 32 33  0  0  0  0  0  0  0  0999 V2000
    3.8679   -0.9806    0.9779 C   0  0  0  0  0  0  0  0  0  0  0  0
    3.3449    0.3102    0.4077 C   0  0  0  0  0  0  0  0  0  0  0  0
    4.1736    1.3424    0.1778 C   0  0  0  0  0  0  0  0  0  0  0  0
    1.9256    0.4392    0.1051 C   0  0  0  0  0  0  0  0  0  0  0  0
    0.9904   -0.5062    0.2956 C   0  0  0  0  0  0  0  0  0  0  0  0
   -0.4341   -0.3283   -0.0540 C   0  0  0  0  0  0  0  0  0  0  0  0
   -1.0791   -1.2911   -0.8614 C   0  0  0  0  0  0  0  0  0  0  0  0
   -2.4349   -1.1345   -1.1815 C   0  0  0  0  0  0  0  0  0  0  0  0
   -3.1609   -0.0384   -0.7034 C   0  0  0  0  0  0  0  0  0  0  0  0
   -2.5436    0.9109    0.1084 C   0  0  0  0  0  0  0  0  0  0  0  0
   -1.1934    0.7544    0.4277 C   0  0  0  0  0  0  0  0  0  0  0  0
   -0.5674    1.7007    1.2777 O   0  0  0  0  0  0  0  0  0  0  0  0
   -1.2402    2.7987    1.7901 C   0  0  0  0  0  0  0  0  0  0  0  0
   -0.7014    3.6276    2.5138 O   0  0  0  0  0  0  0  0  0  0  0  0
   -2.6582    2.9340    1.4204 C   0  0  0  0  0  0  0  0  0  0  0  0
   -3.2783    2.0520    0.6317 C   0  0  0  0  0  0  0  0  0  0  0  0
   -0.3067   -2.3448   -1.2866 O   0  0  0  0  0  0  0  0  0  0  0  0
   -0.8969   -3.2849   -2.1740 C   0  0  0  0  0  0  0  0  0  0  0  0
    4.9482   -0.9407    1.1571 H   0  0  0  0  0  0  0  0  0  0  0  0
    3.3888   -1.2035    1.9374 H   0  0  0  0  0  0  0  0  0  0  0  0
    3.6848   -1.8119    0.2886 H   0  0  0  0  0  0  0  0  0  0  0  0
    5.2350    1.2754    0.3959 H   0  0  0  0  0  0  0  0  0  0  0  0
    3.8218    2.2859   -0.2284 H   0  0  0  0  0  0  0  0  0  0  0  0
    1.6192    1.3962   -0.3167 H   0  0  0  0  0  0  0  0  0  0  0  0
    1.2421   -1.4880    0.6858 H   0  0  0  0  0  0  0  0  0  0  0  0
   -2.9612   -1.8537   -1.8012 H   0  0  0  0  0  0  0  0  0  0  0  0
   -4.2117    0.0552   -0.9682 H   0  0  0  0  0  0  0  0  0  0  0  0
   -3.1710    3.7958    1.8294 H   0  0  0  0  0  0  0  0  0  0  0  0
   -4.3248    2.1725    0.3742 H   0  0  0  0  0  0  0  0  0  0  0  0
   -0.1318   -4.0215   -2.4373 H   0  0  0  0  0  0  0  0  0  0  0  0
   -1.7201   -3.8200   -1.6895 H   0  0  0  0  0  0  0  0  0  0  0  0
   -1.2267   -2.8028   -3.1001 H   0  0  0  0  0  0  0  0  0  0  0  0
  1  2  1  0
  2  3  2  0
  2  4  1  0
  4  5  2  3
  5  6  1  0
  6  7  2  0
  7  8  1  0
  8  9  2  0
  9 10  1  0
 10 11  2  0
 11 12  1  0
 12 13  1  0
 13 14  2  0
 13 15  1  0
 15 16  2  0
  7 17  1  0
 17 18  1  0
 11  6  1  0
 16 10  1  0
  1 19  1  0
  1 20  1  0
  1 21  1  0
  3 22  1  0
  3 23  1  0
  4 24  1  0
  5 25  1  0
  8 26  1  0
  9 27  1  0
 15 28  1  0
 16 29  1  0
 18 30  1  0
 18 31  1  0
 18 32  1  0
M  END
>  <Name>  (211) 
Cis-Dehydroosthol

>  <PubChem ID>  (211) 
13917397

>  <CDB ID>  (211) 
CDB0211

>  <Smiles>  (211) 
CC(=C)C=CC1=C(C=CC2=C1OC(=O)C=C2)OC

>  <Chemical class>  (211) 
7-Oxygenated Coumarins

>  <Natural source>  (211) 
Murraya exotica

>  <Molecular Formula>  (211) 
C15H14O3

>  <InChI-Key>  (211) 
PJCYDTKNZVGNGP-UHFFFAOYSA-N

>  <Total Molweight>  (211) 
242.273

>  <cLogP>  (211) 
3.3933

>  <cLogS>  (211) 
-3.629

>  <H-Acceptors>  (211) 
3

>  <H-Donors>  (211) 
0

>  <Rotatable Bonds>  (211) 
3

>  <Polar Surface Area>  (211) 
35.53

$$$$
CDB0212
     RDKit          3D

 35 36  0  0  0  0  0  0  0  0999 V2000
    4.0075   -1.3719   -0.4836 C   0  0  0  0  0  0  0  0  0  0  0  0
    3.2440   -0.3355   -0.0912 C   0  0  0  0  0  0  0  0  0  0  0  0
    3.8397    0.7688    0.7436 C   0  0  0  0  0  0  0  0  0  0  0  0
    1.7828   -0.1484   -0.4774 C   0  0  1  0  0  0  0  0  0  0  0  0
    1.4363   -1.0742   -1.5137 O   0  0  0  0  0  0  0  0  0  0  0  0
    0.8324   -0.3174    0.7260 C   0  0  0  0  0  0  0  0  0  0  0  0
   -0.5948    0.0699    0.3876 C   0  0  0  0  0  0  0  0  0  0  0  0
   -1.0073    1.4152    0.4361 C   0  0  0  0  0  0  0  0  0  0  0  0
   -0.0491    2.3183    0.8181 O   0  0  0  0  0  0  0  0  0  0  0  0
   -0.3996    3.6962    0.7995 C   0  0  0  0  0  0  0  0  0  0  0  0
   -2.3262    1.7492    0.1038 C   0  0  0  0  0  0  0  0  0  0  0  0
   -3.2368    0.7617   -0.2906 C   0  0  0  0  0  0  0  0  0  0  0  0
   -2.8379   -0.5711   -0.3601 C   0  0  0  0  0  0  0  0  0  0  0  0
   -1.5254   -0.8993   -0.0223 C   0  0  0  0  0  0  0  0  0  0  0  0
   -1.0955   -2.2451   -0.0979 O   0  0  0  0  0  0  0  0  0  0  0  0
   -1.9427   -3.2649   -0.5055 C   0  0  0  0  0  0  0  0  0  0  0  0
   -1.5744   -4.4314   -0.5781 O   0  0  0  0  0  0  0  0  0  0  0  0
   -3.3225   -2.8846   -0.8472 C   0  0  0  0  0  0  0  0  0  0  0  0
   -3.7520   -1.6212   -0.7803 C   0  0  0  0  0  0  0  0  0  0  0  0
    3.6200   -2.1658   -1.1144 H   0  0  0  0  0  0  0  0  0  0  0  0
    5.0525   -1.4496   -0.1993 H   0  0  0  0  0  0  0  0  0  0  0  0
    3.6805    1.7388    0.2611 H   0  0  0  0  0  0  0  0  0  0  0  0
    4.9196    0.6447    0.8796 H   0  0  0  0  0  0  0  0  0  0  0  0
    3.3851    0.7944    1.7382 H   0  0  0  0  0  0  0  0  0  0  0  0
    1.6713    0.8499   -0.9170 H   0  0  0  0  0  0  0  0  0  0  0  0
    1.2412   -1.9247   -1.0843 H   0  0  0  0  0  0  0  0  0  0  0  0
    0.8575   -1.3545    1.0844 H   0  0  0  0  0  0  0  0  0  0  0  0
    1.1627    0.2842    1.5811 H   0  0  0  0  0  0  0  0  0  0  0  0
   -0.6882    4.0179   -0.2066 H   0  0  0  0  0  0  0  0  0  0  0  0
    0.4859    4.2695    1.0905 H   0  0  0  0  0  0  0  0  0  0  0  0
   -1.1887    3.9111    1.5274 H   0  0  0  0  0  0  0  0  0  0  0  0
   -2.6806    2.7745    0.1378 H   0  0  0  0  0  0  0  0  0  0  0  0
   -4.2529    1.0519   -0.5470 H   0  0  0  0  0  0  0  0  0  0  0  0
   -3.9713   -3.6937   -1.1591 H   0  0  0  0  0  0  0  0  0  0  0  0
   -4.7729   -1.3627   -1.0388 H   0  0  0  0  0  0  0  0  0  0  0  0
  1  2  2  0
  2  3  1  0
  2  4  1  0
  4  5  1  0
  4  6  1  0
  6  7  1  0
  7  8  2  0
  8  9  1  0
  9 10  1  0
  8 11  1  0
 11 12  2  0
 12 13  1  0
 13 14  2  0
 14 15  1  0
 15 16  1  0
 16 17  2  0
 16 18  1  0
 18 19  2  0
 14  7  1  0
 19 13  1  0
  1 20  1  0
  1 21  1  0
  3 22  1  0
  3 23  1  0
  3 24  1  0
  4 25  1  6
  5 26  1  0
  6 27  1  0
  6 28  1  0
 10 29  1  0
 10 30  1  0
 10 31  1  0
 11 32  1  0
 12 33  1  0
 18 34  1  0
 19 35  1  0
M  END
>  <Name>  (212) 
Auraptenol

>  <PubChem ID>  (212) 
13343540

>  <CDB ID>  (212) 
CDB0212

>  <Smiles>  (212) 
C=C(C)[C@@H](O)CC1=C(OC)C=CC2=C1OC(=O)C=C2

>  <Chemical class>  (212) 
7-Oxygenated Coumarins

>  <Natural source>  (212) 
Citrus aurantium

>  <Molecular Formula>  (212) 
C15H16O4

>  <InChI-Key>  (212) 
SQSRYWNOKPJENY-LBPRGKRZSA-N

>  <Total Molweight>  (212) 
260.288

>  <cLogP>  (212) 
2.4948

>  <cLogS>  (212) 
-3.095

>  <H-Acceptors>  (212) 
4

>  <H-Donors>  (212) 
1

>  <Rotatable Bonds>  (212) 
4

>  <Polar Surface Area>  (212) 
55.76

$$$$
CDB0213
     RDKit          3D

 35 36  0  0  0  0  0  0  0  0999 V2000
    3.7279   -1.2056    0.8008 C   0  0  0  0  0  0  0  0  0  0  0  0
    3.1439   -0.1900   -0.1833 C   0  0  0  0  0  0  0  0  0  0  0  0
    3.3949   -0.6562   -1.6206 C   0  0  0  0  0  0  0  0  0  0  0  0
    1.7043    0.0957    0.1664 C   0  0  0  0  0  0  0  0  0  0  0  0
    0.6255   -0.0821   -0.6145 C   0  0  0  0  0  0  0  0  0  0  0  0
   -0.7431    0.2301   -0.1622 C   0  0  0  0  0  0  0  0  0  0  0  0
   -1.1361    1.5305    0.2204 C   0  0  0  0  0  0  0  0  0  0  0  0
   -2.4557    1.7583    0.6367 C   0  0  0  0  0  0  0  0  0  0  0  0
   -3.3879    0.7142    0.6710 C   0  0  0  0  0  0  0  0  0  0  0  0
   -3.0161   -0.5710    0.2826 C   0  0  0  0  0  0  0  0  0  0  0  0
   -1.7036   -0.7965   -0.1326 C   0  0  0  0  0  0  0  0  0  0  0  0
   -1.3095   -2.0974   -0.5350 O   0  0  0  0  0  0  0  0  0  0  0  0
   -2.1894   -3.1685   -0.5302 C   0  0  0  0  0  0  0  0  0  0  0  0
   -1.8591   -4.2951   -0.8811 O   0  0  0  0  0  0  0  0  0  0  0  0
   -3.5641   -2.8929   -0.0818 C   0  0  0  0  0  0  0  0  0  0  0  0
   -3.9613   -1.6760    0.3009 C   0  0  0  0  0  0  0  0  0  0  0  0
   -0.1795    2.5116    0.1333 O   0  0  0  0  0  0  0  0  0  0  0  0
   -0.5132    3.8081    0.6099 C   0  0  0  0  0  0  0  0  0  0  0  0
    3.8551    1.0373   -0.0023 O   0  0  0  0  0  0  0  0  0  0  0  0
    3.6399   -0.8521    1.8353 H   0  0  0  0  0  0  0  0  0  0  0  0
    3.2277   -2.1772    0.7247 H   0  0  0  0  0  0  0  0  0  0  0  0
    4.7991   -1.3527    0.6199 H   0  0  0  0  0  0  0  0  0  0  0  0
    2.9083   -1.6145   -1.8311 H   0  0  0  0  0  0  0  0  0  0  0  0
    3.0392    0.0851   -2.3459 H   0  0  0  0  0  0  0  0  0  0  0  0
    4.4692   -0.7703   -1.8081 H   0  0  0  0  0  0  0  0  0  0  0  0
    1.5581    0.4986    1.1691 H   0  0  0  0  0  0  0  0  0  0  0  0
    0.6990   -0.4989   -1.6145 H   0  0  0  0  0  0  0  0  0  0  0  0
   -2.7964    2.7446    0.9358 H   0  0  0  0  0  0  0  0  0  0  0  0
   -4.4038    0.9239    0.9985 H   0  0  0  0  0  0  0  0  0  0  0  0
   -4.2379   -3.7409   -0.0817 H   0  0  0  0  0  0  0  0  0  0  0  0
   -4.9800   -1.4974    0.6271 H   0  0  0  0  0  0  0  0  0  0  0  0
   -1.3034    4.2592    0.0011 H   0  0  0  0  0  0  0  0  0  0  0  0
    0.3773    4.4373    0.5171 H   0  0  0  0  0  0  0  0  0  0  0  0
   -0.7928    3.7820    1.6683 H   0  0  0  0  0  0  0  0  0  0  0  0
    3.3636    1.7187   -0.4938 H   0  0  0  0  0  0  0  0  0  0  0  0
  1  2  1  0
  2  3  1  0
  2  4  1  0
  4  5  2  3
  5  6  1  0
  6  7  2  0
  7  8  1  0
  8  9  2  0
  9 10  1  0
 10 11  2  0
 11 12  1  0
 12 13  1  0
 13 14  2  0
 13 15  1  0
 15 16  2  0
  7 17  1  0
 17 18  1  0
  2 19  1  0
 11  6  1  0
 16 10  1  0
  1 20  1  0
  1 21  1  0
  1 22  1  0
  3 23  1  0
  3 24  1  0
  3 25  1  0
  4 26  1  0
  5 27  1  0
  8 28  1  0
  9 29  1  0
 15 30  1  0
 16 31  1  0
 18 32  1  0
 18 33  1  0
 18 34  1  0
 19 35  1  0
M  END
>  <Name>  (213) 
Murraol

>  <PubChem ID>  (213) 
15593213

>  <CDB ID>  (213) 
CDB0213

>  <Smiles>  (213) 
CC(C)(C=CC1=C(C=CC2=C1OC(=O)C=C2)OC)O

>  <Chemical class>  (213) 
7-Oxygenated Coumarins

>  <Natural source>  (213) 
Murraya exotica

>  <Molecular Formula>  (213) 
C15H16O4

>  <InChI-Key>  (213) 
MDKAWXCQYALXRL-UHFFFAOYSA-N

>  <Total Molweight>  (213) 
260.288

>  <cLogP>  (213) 
2.3312

>  <cLogS>  (213) 
-3.276

>  <H-Acceptors>  (213) 
4

>  <H-Donors>  (213) 
1

>  <Rotatable Bonds>  (213) 
3

>  <Polar Surface Area>  (213) 
55.76

$$$$
CDB0214
     RDKit          3D

 33 35  0  0  0  0  0  0  0  0999 V2000
    3.4106   -1.3908    0.1521 C   0  0  0  0  0  0  0  0  0  0  0  0
    3.2963    0.0066   -0.3978 C   0  0  0  0  0  0  0  0  0  0  0  0
    4.3861    0.7813   -0.5342 C   0  0  0  0  0  0  0  0  0  0  0  0
    1.9370    0.4347   -0.7869 C   0  0  0  0  0  0  0  0  0  0  0  0
    0.9791    0.8904    0.3068 C   0  0  0  0  0  0  0  0  0  0  0  0
    1.4957    1.7935   -0.6891 O   0  0  0  0  0  0  0  0  0  0  0  0
   -0.4944    0.5438    0.2404 C   0  0  0  0  0  0  0  0  0  0  0  0
   -1.4955    1.5379    0.3141 C   0  0  0  0  0  0  0  0  0  0  0  0
   -2.8540    1.1935    0.2541 C   0  0  0  0  0  0  0  0  0  0  0  0
   -3.2461   -0.1416    0.1250 C   0  0  0  0  0  0  0  0  0  0  0  0
   -2.2847   -1.1455    0.0692 C   0  0  0  0  0  0  0  0  0  0  0  0
   -0.9358   -0.7901    0.1337 C   0  0  0  0  0  0  0  0  0  0  0  0
    0.0541   -1.8045    0.1022 O   0  0  0  0  0  0  0  0  0  0  0  0
   -0.2663   -3.1493   -0.0046 C   0  0  0  0  0  0  0  0  0  0  0  0
    0.5882   -4.0267   -0.0344 O   0  0  0  0  0  0  0  0  0  0  0  0
   -1.6973   -3.4827   -0.0825 C   0  0  0  0  0  0  0  0  0  0  0  0
   -2.6514   -2.5480   -0.0480 C   0  0  0  0  0  0  0  0  0  0  0  0
   -1.0401    2.8219    0.4846 O   0  0  0  0  0  0  0  0  0  0  0  0
   -1.9625    3.8798    0.2621 C   0  0  0  0  0  0  0  0  0  0  0  0
    2.8271   -1.4866    1.0736 H   0  0  0  0  0  0  0  0  0  0  0  0
    4.4463   -1.6602    0.3847 H   0  0  0  0  0  0  0  0  0  0  0  0
    3.0339   -2.1169   -0.5757 H   0  0  0  0  0  0  0  0  0  0  0  0
    5.3749    0.4389   -0.2480 H   0  0  0  0  0  0  0  0  0  0  0  0
    4.3044    1.7870   -0.9371 H   0  0  0  0  0  0  0  0  0  0  0  0
    1.5343   -0.1280   -1.6234 H   0  0  0  0  0  0  0  0  0  0  0  0
    1.3832    1.0142    1.3073 H   0  0  0  0  0  0  0  0  0  0  0  0
   -3.6337    1.9458    0.3208 H   0  0  0  0  0  0  0  0  0  0  0  0
   -4.3061   -0.3808    0.0823 H   0  0  0  0  0  0  0  0  0  0  0  0
   -1.9318   -4.5367   -0.1687 H   0  0  0  0  0  0  0  0  0  0  0  0
   -3.7003   -2.8179   -0.1058 H   0  0  0  0  0  0  0  0  0  0  0  0
   -2.4351    3.7987   -0.7226 H   0  0  0  0  0  0  0  0  0  0  0  0
   -1.4042    4.8206    0.2868 H   0  0  0  0  0  0  0  0  0  0  0  0
   -2.7119    3.9175    1.0590 H   0  0  0  0  0  0  0  0  0  0  0  0
  1  2  1  0
  2  3  2  0
  2  4  1  0
  4  5  1  0
  5  6  1  0
  5  7  1  0
  7  8  2  0
  8  9  1  0
  9 10  2  0
 10 11  1  0
 11 12  2  0
 12 13  1  0
 13 14  1  0
 14 15  2  0
 14 16  1  0
 16 17  2  0
  8 18  1  0
 18 19  1  0
  6  4  1  0
 12  7  1  0
 17 11  1  0
  1 20  1  0
  1 21  1  0
  1 22  1  0
  3 23  1  0
  3 24  1  0
  4 25  1  0
  5 26  1  0
  9 27  1  0
 10 28  1  0
 16 29  1  0
 17 30  1  0
 19 31  1  0
 19 32  1  0
 19 33  1  0
M  END
>  <Name>  (214) 
Phebalosin

>  <PubChem ID>  (214) 
188300

>  <CDB ID>  (214) 
CDB0214

>  <Smiles>  (214) 
CC(=C)C1C(O1)C2=C(C=CC3=C2OC(=O)C=C3)OC

>  <Chemical class>  (214) 
7-Oxygenated Coumarins

>  <Natural source>  (214) 
Phebalium tuberculosum

>  <Molecular Formula>  (214) 
C15H14O4

>  <InChI-Key>  (214) 
YTDNHMHONBWCBV-UHFFFAOYSA-N

>  <Total Molweight>  (214) 
258.272

>  <cLogP>  (214) 
2.346

>  <cLogS>  (214) 
-3.028

>  <H-Acceptors>  (214) 
4

>  <H-Donors>  (214) 
0

>  <Rotatable Bonds>  (214) 
3

>  <Polar Surface Area>  (214) 
48.06

$$$$
CDB0215
     RDKit          3D

 35 37  0  0  0  0  0  0  0  0999 V2000
   -0.6181    1.7415    2.8469 C   0  0  0  0  0  0  0  0  0  0  0  0
   -0.7207    2.1836    1.4926 O   0  0  0  0  0  0  0  0  0  0  0  0
   -1.4209    1.2856    0.7298 C   0  0  0  0  0  0  0  0  0  0  0  0
   -0.7569    0.6005   -0.2970 C   0  0  0  0  0  0  0  0  0  0  0  0
    0.7252    0.7798   -0.5312 C   0  0  0  0  0  0  0  0  0  0  0  0
    1.5089   -0.2799    0.1824 C   0  0  2  0  0  0  0  0  0  0  0  0
    2.0213    0.0915    1.4712 O   0  0  0  0  0  0  0  0  0  0  0  0
    3.0011   -0.1604    0.4525 C   0  0  0  0  0  0  0  0  0  0  0  0
    3.7774    1.0516    0.0421 C   0  0  0  0  0  0  0  0  0  0  0  0
    3.7907   -1.4139    0.6709 C   0  0  0  0  0  0  0  0  0  0  0  0
   -1.5147   -0.2903   -1.0740 C   0  0  0  0  0  0  0  0  0  0  0  0
   -2.8842   -0.4805   -0.8690 C   0  0  0  0  0  0  0  0  0  0  0  0
   -3.6082   -1.4166   -1.7146 C   0  0  0  0  0  0  0  0  0  0  0  0
   -2.9571   -2.0874   -2.6691 C   0  0  0  0  0  0  0  0  0  0  0  0
   -1.5145   -1.9184   -2.9064 C   0  0  0  0  0  0  0  0  0  0  0  0
   -0.9436   -2.5545   -3.7844 O   0  0  0  0  0  0  0  0  0  0  0  0
   -0.8490   -1.0144   -2.0912 O   0  0  0  0  0  0  0  0  0  0  0  0
   -3.5256    0.2375    0.1403 C   0  0  0  0  0  0  0  0  0  0  0  0
   -2.7956    1.1234    0.9352 C   0  0  0  0  0  0  0  0  0  0  0  0
   -0.3756    0.6748    2.9144 H   0  0  0  0  0  0  0  0  0  0  0  0
    0.1913    2.3039    3.3218 H   0  0  0  0  0  0  0  0  0  0  0  0
   -1.5436    1.9557    3.3909 H   0  0  0  0  0  0  0  0  0  0  0  0
    0.9388    0.7269   -1.6055 H   0  0  0  0  0  0  0  0  0  0  0  0
    1.0288    1.7876   -0.2273 H   0  0  0  0  0  0  0  0  0  0  0  0
    1.1036   -1.2763    0.0525 H   0  0  0  0  0  0  0  0  0  0  0  0
    3.2228    1.9810    0.2019 H   0  0  0  0  0  0  0  0  0  0  0  0
    4.7054    1.1279    0.6187 H   0  0  0  0  0  0  0  0  0  0  0  0
    4.0405    0.9876   -1.0184 H   0  0  0  0  0  0  0  0  0  0  0  0
    4.2745   -1.7229   -0.2612 H   0  0  0  0  0  0  0  0  0  0  0  0
    4.5678   -1.2527    1.4252 H   0  0  0  0  0  0  0  0  0  0  0  0
    3.1597   -2.2411    1.0132 H   0  0  0  0  0  0  0  0  0  0  0  0
   -4.6720   -1.5576   -1.5579 H   0  0  0  0  0  0  0  0  0  0  0  0
   -3.4619   -2.7927   -3.3178 H   0  0  0  0  0  0  0  0  0  0  0  0
   -4.5921    0.1225    0.3167 H   0  0  0  0  0  0  0  0  0  0  0  0
   -3.3038    1.6965    1.7060 H   0  0  0  0  0  0  0  0  0  0  0  0
  1  2  1  0
  2  3  1  0
  3  4  2  0
  4  5  1  0
  5  6  1  0
  6  7  1  0
  7  8  1  0
  8  9  1  0
  8 10  1  0
  4 11  1  0
 11 12  2  0
 12 13  1  0
 13 14  2  0
 14 15  1  0
 15 16  2  0
 15 17  1  0
 12 18  1  0
 18 19  2  0
 19  3  1  0
  8  6  1  0
 17 11  1  0
  1 20  1  0
  1 21  1  0
  1 22  1  0
  5 23  1  0
  5 24  1  0
  6 25  1  1
  9 26  1  0
  9 27  1  0
  9 28  1  0
 10 29  1  0
 10 30  1  0
 10 31  1  0
 13 32  1  0
 14 33  1  0
 18 34  1  0
 19 35  1  0
M  END
>  <Name>  (215) 
Meranzin (Aurapten)

>  <PubChem ID>  (215) 
1803558

>  <CDB ID>  (215) 
CDB0215

>  <Smiles>  (215) 
COC1=C(C[C@@H]2OC2(C)C)C2=C(C=CC(=O)O2)C=C1

>  <Chemical class>  (215) 
7-Oxygenated Coumarins

>  <Natural source>  (215) 
Citrus aurantium

>  <Molecular Formula>  (215) 
C15H16O4

>  <InChI-Key>  (215) 
LSZONYLDFHGRDP-LBPRGKRZSA-N

>  <Total Molweight>  (215) 
260.288

>  <cLogP>  (215) 
2.0191

>  <cLogS>  (215) 
-3.223

>  <H-Acceptors>  (215) 
4

>  <H-Donors>  (215) 
0

>  <Rotatable Bonds>  (215) 
3

>  <Polar Surface Area>  (215) 
48.06

$$$$
CDB0216
     RDKit          3D

 46 49  0  0  0  0  0  0  0  0999 V2000
   -2.6466    3.0182   -0.3734 C   0  0  0  0  0  0  0  0  0  0  0  0
   -1.9897    2.2138    0.7043 C   0  0  0  0  0  0  0  0  0  0  0  0
   -1.2829    0.9022    0.4009 C   0  0  0  0  0  0  0  0  0  0  0  0
   -2.6113    0.9416    0.9424 O   0  0  0  0  0  0  0  0  0  0  0  0
   -1.1692    0.3411   -0.9837 C   0  0  0  0  0  0  0  0  0  0  0  0
   -0.7506   -1.1135   -0.9346 C   0  0  0  0  0  0  0  0  0  0  0  0
    0.6055   -1.4736   -0.8040 C   0  0  0  0  0  0  0  0  0  0  0  0
    0.9633   -2.8256   -0.7344 C   0  0  0  0  0  0  0  0  0  0  0  0
   -0.0143   -3.8261   -0.7781 C   0  0  0  0  0  0  0  0  0  0  0  0
   -1.3603   -3.4860   -0.8941 C   0  0  0  0  0  0  0  0  0  0  0  0
   -1.7114   -2.1383   -0.9710 C   0  0  0  0  0  0  0  0  0  0  0  0
   -3.0732   -1.7746   -1.0936 O   0  0  0  0  0  0  0  0  0  0  0  0
   -4.0874   -2.7192   -1.1444 C   0  0  0  0  0  0  0  0  0  0  0  0
   -5.2682   -2.4170   -1.2724 O   0  0  0  0  0  0  0  0  0  0  0  0
   -3.6804   -4.1307   -1.0479 C   0  0  0  0  0  0  0  0  0  0  0  0
   -2.4017   -4.5002   -0.9325 C   0  0  0  0  0  0  0  0  0  0  0  0
    1.4946   -0.4317   -0.7568 O   0  0  0  0  0  0  0  0  0  0  0  0
    2.8625   -0.7321   -0.4846 C   0  0  0  0  0  0  0  0  0  0  0  0
    3.6103    0.5593   -0.4169 C   0  0  0  0  0  0  0  0  0  0  0  0
    3.5605    1.5036    0.7729 C   0  0  0  0  0  0  0  0  0  0  0  0
    4.6586    0.6006    0.5632 O   0  0  0  0  0  0  0  0  0  0  0  0
    3.9148    2.9427    0.5603 C   0  0  0  0  0  0  0  0  0  0  0  0
    2.7401    1.1957    1.9862 C   0  0  0  0  0  0  0  0  0  0  0  0
   -1.6227    2.9501    1.9552 C   0  0  0  0  0  0  0  0  0  0  0  0
   -1.9025    3.6339   -0.8885 H   0  0  0  0  0  0  0  0  0  0  0  0
   -3.4044    3.6847    0.0519 H   0  0  0  0  0  0  0  0  0  0  0  0
   -3.1487    2.3940   -1.1185 H   0  0  0  0  0  0  0  0  0  0  0  0
   -0.4694    0.6088    1.0527 H   0  0  0  0  0  0  0  0  0  0  0  0
   -0.4335    0.9216   -1.5532 H   0  0  0  0  0  0  0  0  0  0  0  0
   -2.1056    0.4410   -1.5436 H   0  0  0  0  0  0  0  0  0  0  0  0
    1.9984   -3.1402   -0.6442 H   0  0  0  0  0  0  0  0  0  0  0  0
    0.2921   -4.8679   -0.7179 H   0  0  0  0  0  0  0  0  0  0  0  0
   -4.4848   -4.8552   -1.0796 H   0  0  0  0  0  0  0  0  0  0  0  0
   -2.1259   -5.5467   -0.8644 H   0  0  0  0  0  0  0  0  0  0  0  0
    2.9543   -1.2901    0.4543 H   0  0  0  0  0  0  0  0  0  0  0  0
    3.2823   -1.3311   -1.3013 H   0  0  0  0  0  0  0  0  0  0  0  0
    3.8051    0.9730   -1.3982 H   0  0  0  0  0  0  0  0  0  0  0  0
    4.5581    3.0810   -0.3152 H   0  0  0  0  0  0  0  0  0  0  0  0
    3.0078    3.5366    0.4086 H   0  0  0  0  0  0  0  0  0  0  0  0
    4.4454    3.3411    1.4312 H   0  0  0  0  0  0  0  0  0  0  0  0
    1.7248    1.5843    1.8612 H   0  0  0  0  0  0  0  0  0  0  0  0
    2.6711    0.1236    2.1912 H   0  0  0  0  0  0  0  0  0  0  0  0
    3.1772    1.6678    2.8725 H   0  0  0  0  0  0  0  0  0  0  0  0
   -2.5047    3.4281    2.3937 H   0  0  0  0  0  0  0  0  0  0  0  0
   -0.8843    3.7272    1.7331 H   0  0  0  0  0  0  0  0  0  0  0  0
   -1.1929    2.2843    2.7113 H   0  0  0  0  0  0  0  0  0  0  0  0
  1  2  1  0
  2  3  1  0
  3  4  1  0
  3  5  1  0
  5  6  1  0
  6  7  2  0
  7  8  1  0
  8  9  2  0
  9 10  1  0
 10 11  2  0
 11 12  1  0
 12 13  1  0
 13 14  2  0
 13 15  1  0
 15 16  2  0
  7 17  1  0
 17 18  1  0
 18 19  1  0
 19 20  1  0
 20 21  1  0
 20 22  1  0
 20 23  1  0
  2 24  1  0
  4  2  1  0
 11  6  1  0
 16 10  1  0
 21 19  1  0
  1 25  1  0
  1 26  1  0
  1 27  1  0
  3 28  1  0
  5 29  1  0
  5 30  1  0
  8 31  1  0
  9 32  1  0
 15 33  1  0
 16 34  1  0
 18 35  1  0
 18 36  1  0
 19 37  1  0
 22 38  1  0
 22 39  1  0
 22 40  1  0
 23 41  1  0
 23 42  1  0
 23 43  1  0
 24 44  1  0
 24 45  1  0
 24 46  1  0
M  END
>  <Name>  (216) 
Poncimarin

>  <PubChem ID>  (216) 
53909371

>  <CDB ID>  (216) 
CDB0216

>  <Smiles>  (216) 
CC1(C(O1)CC2=C(C=CC3=C2OC(=O)C=C3)OCC4C(O4)(C)C)C

>  <Chemical class>  (216) 
7-Oxygenated Coumarins

>  <Natural source>  (216) 
Poncirus trifoliata

>  <Molecular Formula>  (216) 
C19H22O5

>  <InChI-Key>  (216) 
ICRMRGFEHCUSRS-UHFFFAOYSA-N

>  <Total Molweight>  (216) 
330.379

>  <cLogP>  (216) 
2.2576

>  <cLogS>  (216) 
-3.855

>  <H-Acceptors>  (216) 
5

>  <H-Donors>  (216) 
0

>  <Rotatable Bonds>  (216) 
5

>  <Polar Surface Area>  (216) 
60.59

$$$$
CDB0217
     RDKit          3D

 33 34  0  0  0  0  0  0  0  0999 V2000
    4.3560    0.0303    0.8299 C   0  0  0  0  0  0  0  0  0  0  0  0
    3.2089    0.2515   -0.1194 C   0  0  0  0  0  0  0  0  0  0  0  0
    3.3431    1.0792   -1.1694 C   0  0  0  0  0  0  0  0  0  0  0  0
    1.9509   -0.5165    0.2288 C   0  0  0  0  0  0  0  0  0  0  0  0
    0.8260   -0.5269   -0.8048 C   0  0  0  0  0  0  0  0  0  0  0  0
    0.9653   -0.8637   -1.9781 O   0  0  0  0  0  0  0  0  0  0  0  0
   -0.5249   -0.1711   -0.3271 C   0  0  0  0  0  0  0  0  0  0  0  0
   -0.8266    1.1509    0.0336 C   0  0  0  0  0  0  0  0  0  0  0  0
   -2.1275    1.4524    0.4529 C   0  0  0  0  0  0  0  0  0  0  0  0
   -3.1115    0.4552    0.5044 C   0  0  0  0  0  0  0  0  0  0  0  0
   -2.8055   -0.8587    0.1470 C   0  0  0  0  0  0  0  0  0  0  0  0
   -1.5092   -1.1627   -0.2632 C   0  0  0  0  0  0  0  0  0  0  0  0
   -1.1650   -2.4928   -0.5906 O   0  0  0  0  0  0  0  0  0  0  0  0
   -2.0915   -3.5244   -0.5413 C   0  0  0  0  0  0  0  0  0  0  0  0
   -1.8038   -4.6864   -0.8009 O   0  0  0  0  0  0  0  0  0  0  0  0
   -3.4608   -3.1625   -0.1377 C   0  0  0  0  0  0  0  0  0  0  0  0
   -3.8045   -1.9141    0.1920 C   0  0  0  0  0  0  0  0  0  0  0  0
    0.1926    2.0592   -0.0493 O   0  0  0  0  0  0  0  0  0  0  0  0
   -0.1168    3.4282    0.1781 C   0  0  0  0  0  0  0  0  0  0  0  0
    4.0692    0.3227    1.8453 H   0  0  0  0  0  0  0  0  0  0  0  0
    5.2413    0.6129    0.5537 H   0  0  0  0  0  0  0  0  0  0  0  0
    4.6429   -1.0263    0.8392 H   0  0  0  0  0  0  0  0  0  0  0  0
    4.2745    1.6003   -1.3684 H   0  0  0  0  0  0  0  0  0  0  0  0
    2.5354    1.2564   -1.8738 H   0  0  0  0  0  0  0  0  0  0  0  0
    2.2086   -1.5710    0.3929 H   0  0  0  0  0  0  0  0  0  0  0  0
    1.5667   -0.1383    1.1840 H   0  0  0  0  0  0  0  0  0  0  0  0
   -2.4138    2.4583    0.7460 H   0  0  0  0  0  0  0  0  0  0  0  0
   -4.1156    0.7216    0.8289 H   0  0  0  0  0  0  0  0  0  0  0  0
   -4.1751   -3.9768   -0.1187 H   0  0  0  0  0  0  0  0  0  0  0  0
   -4.8197   -1.6738    0.4889 H   0  0  0  0  0  0  0  0  0  0  0  0
   -0.8763    3.7851   -0.5253 H   0  0  0  0  0  0  0  0  0  0  0  0
    0.7947    4.0092    0.0080 H   0  0  0  0  0  0  0  0  0  0  0  0
   -0.4280    3.5925    1.2147 H   0  0  0  0  0  0  0  0  0  0  0  0
  1  2  1  0
  2  3  2  0
  2  4  1  0
  4  5  1  0
  5  6  2  0
  5  7  1  0
  7  8  2  0
  8  9  1  0
  9 10  2  0
 10 11  1  0
 11 12  2  0
 12 13  1  0
 13 14  1  0
 14 15  2  0
 14 16  1  0
 16 17  2  0
  8 18  1  0
 18 19  1  0
 12  7  1  0
 17 11  1  0
  1 20  1  0
  1 21  1  0
  1 22  1  0
  3 23  1  0
  3 24  1  0
  4 25  1  0
  4 26  1  0
  9 27  1  0
 10 28  1  0
 16 29  1  0
 17 30  1  0
 19 31  1  0
 19 32  1  0
 19 33  1  0
M  END
>  <Name>  (217) 
Micropubescin

>  <PubChem ID>  (217) 
14185882

>  <CDB ID>  (217) 
CDB0217

>  <Smiles>  (217) 
CC(=C)CC(=O)C1=C(C=CC2=C1OC(=O)C=C2)OC

>  <Chemical class>  (217) 
7-Oxygenated Coumarins

>  <Natural source>  (217) 
Micromelum pubescens

>  <Molecular Formula>  (217) 
C15H14O4

>  <InChI-Key>  (217) 
JNSXMHXBHMBHCB-UHFFFAOYSA-N

>  <Total Molweight>  (217) 
258.272

>  <cLogP>  (217) 
2.6283

>  <cLogS>  (217) 
-3.675

>  <H-Acceptors>  (217) 
4

>  <H-Donors>  (217) 
0

>  <Rotatable Bonds>  (217) 
4

>  <Polar Surface Area>  (217) 
52.6

$$$$
CDB0218
     RDKit          3D

 35 36  0  0  0  0  0  0  0  0999 V2000
    3.5465    0.1168   -1.1362 C   0  0  0  0  0  0  0  0  0  0  0  0
    2.3776   -0.5782   -1.8243 C   0  0  0  0  0  0  0  0  0  0  0  0
    2.3444   -0.2502   -3.3141 C   0  0  0  0  0  0  0  0  0  0  0  0
    1.0723   -0.1695   -1.1451 C   0  0  0  0  0  0  0  0  0  0  0  0
    0.4125    0.7888   -1.5520 O   0  0  0  0  0  0  0  0  0  0  0  0
    0.6525   -1.0161    0.0489 C   0  0  0  0  0  0  0  0  0  0  0  0
   -0.4060   -0.3659    0.9047 C   0  0  0  0  0  0  0  0  0  0  0  0
   -0.0762    0.6978    1.7577 C   0  0  0  0  0  0  0  0  0  0  0  0
   -1.0504    1.3028    2.5588 C   0  0  0  0  0  0  0  0  0  0  0  0
   -2.3809    0.8834    2.4844 C   0  0  0  0  0  0  0  0  0  0  0  0
   -2.7389   -0.1491    1.6170 C   0  0  0  0  0  0  0  0  0  0  0  0
   -1.7498   -0.7604    0.8421 C   0  0  0  0  0  0  0  0  0  0  0  0
   -2.0954   -1.8119   -0.0378 O   0  0  0  0  0  0  0  0  0  0  0  0
   -3.4002   -2.2655   -0.1646 C   0  0  0  0  0  0  0  0  0  0  0  0
   -3.7063   -3.1829   -0.9173 O   0  0  0  0  0  0  0  0  0  0  0  0
   -4.4179   -1.5966    0.6618 C   0  0  0  0  0  0  0  0  0  0  0  0
   -4.1159   -0.6035    1.5030 C   0  0  0  0  0  0  0  0  0  0  0  0
    1.2391    1.0840    1.8216 O   0  0  0  0  0  0  0  0  0  0  0  0
    1.4050    2.4737    1.5352 C   0  0  0  0  0  0  0  0  0  0  0  0
    4.4976   -0.1718   -1.5953 H   0  0  0  0  0  0  0  0  0  0  0  0
    3.5921   -0.1456   -0.0741 H   0  0  0  0  0  0  0  0  0  0  0  0
    3.4528    1.2068   -1.1991 H   0  0  0  0  0  0  0  0  0  0  0  0
    2.4842   -1.6648   -1.7212 H   0  0  0  0  0  0  0  0  0  0  0  0
    1.4814   -0.7221   -3.7964 H   0  0  0  0  0  0  0  0  0  0  0  0
    3.2505   -0.6117   -3.8114 H   0  0  0  0  0  0  0  0  0  0  0  0
    2.2711    0.8291   -3.4874 H   0  0  0  0  0  0  0  0  0  0  0  0
    1.5320   -1.2190    0.6711 H   0  0  0  0  0  0  0  0  0  0  0  0
    0.3183   -1.9866   -0.3331 H   0  0  0  0  0  0  0  0  0  0  0  0
   -0.7821    2.0954    3.2513 H   0  0  0  0  0  0  0  0  0  0  0  0
   -3.1258    1.3706    3.1086 H   0  0  0  0  0  0  0  0  0  0  0  0
   -5.4315   -1.9606    0.5474 H   0  0  0  0  0  0  0  0  0  0  0  0
   -4.8826   -0.1249    2.1022 H   0  0  0  0  0  0  0  0  0  0  0  0
    2.4553    2.6360    1.2744 H   0  0  0  0  0  0  0  0  0  0  0  0
    1.1813    3.0788    2.4193 H   0  0  0  0  0  0  0  0  0  0  0  0
    0.7933    2.7926    0.6835 H   0  0  0  0  0  0  0  0  0  0  0  0
  1  2  1  0
  2  3  1  0
  2  4  1  0
  4  5  2  0
  4  6  1  0
  6  7  1  0
  7  8  2  0
  8  9  1  0
  9 10  2  0
 10 11  1  0
 11 12  2  0
 12 13  1  0
 13 14  1  0
 14 15  2  0
 14 16  1  0
 16 17  2  0
  8 18  1  0
 18 19  1  0
 12  7  1  0
 17 11  1  0
  1 20  1  0
  1 21  1  0
  1 22  1  0
  2 23  1  0
  3 24  1  0
  3 25  1  0
  3 26  1  0
  6 27  1  0
  6 28  1  0
  9 29  1  0
 10 30  1  0
 16 31  1  0
 17 32  1  0
 19 33  1  0
 19 34  1  0
 19 35  1  0
M  END
>  <Name>  (218) 
Isomeranzin

>  <PubChem ID>  (218) 
473252

>  <CDB ID>  (218) 
CDB0218

>  <Smiles>  (218) 
CC(C)C(=O)CC1=C(C=CC2=C1OC(=O)C=C2)OC

>  <Chemical class>  (218) 
7-Oxygenated Coumarins

>  <Natural source>  (218) 
Skimmia japonica

>  <Molecular Formula>  (218) 
C15H16O4

>  <InChI-Key>  (218) 
OMOYQLRHKFGVGN-UHFFFAOYSA-N

>  <Total Molweight>  (218) 
260.288

>  <cLogP>  (218) 
2.261

>  <cLogS>  (218) 
-3.243

>  <H-Acceptors>  (218) 
4

>  <H-Donors>  (218) 
0

>  <Rotatable Bonds>  (218) 
4

>  <Polar Surface Area>  (218) 
52.6

$$$$
CDB0219
     RDKit          3D

 45 46  0  0  0  0  0  0  0  0999 V2000
   -2.8254    1.7057    1.8899 C   0  0  0  0  0  0  0  0  0  0  0  0
   -1.3061    1.6231    1.9799 C   0  0  0  0  0  0  0  0  0  0  0  0
   -0.6820    3.0152    1.9972 C   0  0  0  0  0  0  0  0  0  0  0  0
   -0.7722    0.7965    0.8122 C   0  0  0  0  0  0  0  0  0  0  0  0
   -0.4079    1.3291   -0.2382 O   0  0  0  0  0  0  0  0  0  0  0  0
   -0.7106   -0.7079    1.0355 C   0  0  0  0  0  0  0  0  0  0  0  0
   -0.6874   -1.5002   -0.2471 C   0  0  0  0  0  0  0  0  0  0  0  0
    0.5134   -1.9557   -0.8032 C   0  0  0  0  0  0  0  0  0  0  0  0
    0.5259   -2.6910   -1.9928 C   0  0  0  0  0  0  0  0  0  0  0  0
   -0.6675   -2.9420   -2.6740 C   0  0  0  0  0  0  0  0  0  0  0  0
   -1.8749   -2.4662   -2.1611 C   0  0  0  0  0  0  0  0  0  0  0  0
   -1.8687   -1.7555   -0.9583 C   0  0  0  0  0  0  0  0  0  0  0  0
   -3.0810   -1.2643   -0.4208 O   0  0  0  0  0  0  0  0  0  0  0  0
   -4.2973   -1.4606   -1.0581 C   0  0  0  0  0  0  0  0  0  0  0  0
   -5.3525   -1.0405   -0.5980 O   0  0  0  0  0  0  0  0  0  0  0  0
   -4.2701   -2.2130   -2.3230 C   0  0  0  0  0  0  0  0  0  0  0  0
   -3.1376   -2.6910   -2.8470 C   0  0  0  0  0  0  0  0  0  0  0  0
    1.6862   -1.7218   -0.1343 O   0  0  0  0  0  0  0  0  0  0  0  0
    2.4930   -0.7608   -0.8326 C   0  0  0  0  0  0  0  0  0  0  0  0
    3.4897   -0.2279    0.1554 C   0  0  0  0  0  0  0  0  0  0  0  0
    3.7460    1.0552    0.4803 C   0  0  0  0  0  0  0  0  0  0  0  0
    3.0676    2.2574   -0.1180 C   0  0  0  0  0  0  0  0  0  0  0  0
    4.7840    1.3885    1.5203 C   0  0  0  0  0  0  0  0  0  0  0  0
   -3.2776    0.7089    1.9201 H   0  0  0  0  0  0  0  0  0  0  0  0
   -3.1424    2.1797    0.9542 H   0  0  0  0  0  0  0  0  0  0  0  0
   -3.2352    2.2856    2.7233 H   0  0  0  0  0  0  0  0  0  0  0  0
   -1.0202    1.1156    2.9090 H   0  0  0  0  0  0  0  0  0  0  0  0
   -1.0229    3.5830    2.8692 H   0  0  0  0  0  0  0  0  0  0  0  0
    0.4101    2.9494    2.0426 H   0  0  0  0  0  0  0  0  0  0  0  0
   -0.9428    3.5854    1.0987 H   0  0  0  0  0  0  0  0  0  0  0  0
    0.1706   -0.9193    1.6512 H   0  0  0  0  0  0  0  0  0  0  0  0
   -1.5762   -1.0203    1.6310 H   0  0  0  0  0  0  0  0  0  0  0  0
    1.4627   -3.0726   -2.3898 H   0  0  0  0  0  0  0  0  0  0  0  0
   -0.6396   -3.5072   -3.6022 H   0  0  0  0  0  0  0  0  0  0  0  0
   -5.2287   -2.3572   -2.8060 H   0  0  0  0  0  0  0  0  0  0  0  0
   -3.1416   -3.2422   -3.7809 H   0  0  0  0  0  0  0  0  0  0  0  0
    1.8730    0.0275   -1.2688 H   0  0  0  0  0  0  0  0  0  0  0  0
    3.0370   -1.2677   -1.6382 H   0  0  0  0  0  0  0  0  0  0  0  0
    4.0558   -1.0112    0.6585 H   0  0  0  0  0  0  0  0  0  0  0  0
    3.8147    2.9309   -0.5518 H   0  0  0  0  0  0  0  0  0  0  0  0
    2.5219    2.8047    0.6570 H   0  0  0  0  0  0  0  0  0  0  0  0
    2.3595    2.0131   -0.9115 H   0  0  0  0  0  0  0  0  0  0  0  0
    5.2552    0.4936    1.9403 H   0  0  0  0  0  0  0  0  0  0  0  0
    5.5751    2.0060    1.0824 H   0  0  0  0  0  0  0  0  0  0  0  0
    4.3271    1.9421    2.3472 H   0  0  0  0  0  0  0  0  0  0  0  0
  1  2  1  0
  2  3  1  0
  2  4  1  0
  4  5  2  0
  4  6  1  0
  6  7  1  0
  7  8  2  0
  8  9  1  0
  9 10  2  0
 10 11  1  0
 11 12  2  0
 12 13  1  0
 13 14  1  0
 14 15  2  0
 14 16  1  0
 16 17  2  0
  8 18  1  0
 18 19  1  0
 19 20  1  0
 20 21  2  3
 21 22  1  0
 21 23  1  0
 12  7  1  0
 17 11  1  0
  1 24  1  0
  1 25  1  0
  1 26  1  0
  2 27  1  0
  3 28  1  0
  3 29  1  0
  3 30  1  0
  6 31  1  0
  6 32  1  0
  9 33  1  0
 10 34  1  0
 16 35  1  0
 17 36  1  0
 19 37  1  0
 19 38  1  0
 20 39  1  0
 22 40  1  0
 22 41  1  0
 22 42  1  0
 23 43  1  0
 23 44  1  0
 23 45  1  0
M  END
>  <Name>  (219) 
Anisocoumarin E

>  <PubChem ID>  (219) 
14376446

>  <CDB ID>  (219) 
CDB0219

>  <Smiles>  (219) 
CC(C)C(=O)CC1=C(C=CC2=C1OC(=O)C=C2)OCC=C(C)C

>  <Chemical class>  (219) 
7-Oxygenated Coumarins

>  <Natural source>  (219) 
Clausena anisata

>  <Molecular Formula>  (219) 
C19H22O4

>  <InChI-Key>  (219) 
XWQPFCRDLSVCLK-UHFFFAOYSA-N

>  <Total Molweight>  (219) 
314.38

>  <cLogP>  (219) 
3.9303

>  <cLogS>  (219) 
-3.979

>  <H-Acceptors>  (219) 
4

>  <H-Donors>  (219) 
0

>  <Rotatable Bonds>  (219) 
6

>  <Polar Surface Area>  (219) 
52.6

$$$$
CDB0220
     RDKit          3D

 46 48  0  0  0  0  0  0  0  0999 V2000
   -0.6585   -2.8107    2.0890 C   0  0  0  0  0  0  0  0  0  0  0  0
   -1.4774   -2.1693    0.9720 C   0  0  0  0  0  0  0  0  0  0  0  0
   -2.9557   -2.1254    1.3419 C   0  0  0  0  0  0  0  0  0  0  0  0
   -0.9830   -0.7559    0.6678 C   0  0  0  0  0  0  0  0  0  0  0  0
   -0.4224   -0.0729    1.5281 O   0  0  0  0  0  0  0  0  0  0  0  0
   -1.2393   -0.2517   -0.7476 C   0  0  0  0  0  0  0  0  0  0  0  0
   -0.8860    1.2024   -0.9412 C   0  0  0  0  0  0  0  0  0  0  0  0
    0.3426    1.5937   -1.4868 C   0  0  0  0  0  0  0  0  0  0  0  0
    1.2319    0.6488   -1.9240 O   0  0  0  0  0  0  0  0  0  0  0  0
    2.2047    0.3608   -0.9072 C   0  0  0  0  0  0  0  0  0  0  0  0
    2.7003   -1.0321   -1.1280 C   0  0  2  0  0  0  0  0  0  0  0  0
    1.8835   -2.0668   -0.5543 O   0  0  0  0  0  0  0  0  0  0  0  0
    3.2110   -1.9392   -0.0202 C   0  0  0  0  0  0  0  0  0  0  0  0
    3.2517   -1.4912    1.4079 C   0  0  0  0  0  0  0  0  0  0  0  0
    4.1190   -3.0723   -0.3866 C   0  0  0  0  0  0  0  0  0  0  0  0
    0.6641    2.9427   -1.6594 C   0  0  0  0  0  0  0  0  0  0  0  0
   -0.2293    3.9326   -1.2448 C   0  0  0  0  0  0  0  0  0  0  0  0
   -1.4489    3.5725   -0.6690 C   0  0  0  0  0  0  0  0  0  0  0  0
   -1.7609    2.2177   -0.5279 C   0  0  0  0  0  0  0  0  0  0  0  0
   -2.9941    1.8320    0.0474 O   0  0  0  0  0  0  0  0  0  0  0  0
   -3.9182    2.7656    0.4922 C   0  0  0  0  0  0  0  0  0  0  0  0
   -4.9930    2.4422    0.9842 O   0  0  0  0  0  0  0  0  0  0  0  0
   -3.5568    4.1840    0.3354 C   0  0  0  0  0  0  0  0  0  0  0  0
   -2.4011    4.5722   -0.2116 C   0  0  0  0  0  0  0  0  0  0  0  0
    0.4062   -2.8221    1.8349 H   0  0  0  0  0  0  0  0  0  0  0  0
   -0.9759   -3.8450    2.2582 H   0  0  0  0  0  0  0  0  0  0  0  0
   -0.7674   -2.2646    3.0326 H   0  0  0  0  0  0  0  0  0  0  0  0
   -1.3425   -2.7729    0.0666 H   0  0  0  0  0  0  0  0  0  0  0  0
   -3.5569   -1.7136    0.5249 H   0  0  0  0  0  0  0  0  0  0  0  0
   -3.1255   -1.4952    2.2221 H   0  0  0  0  0  0  0  0  0  0  0  0
   -3.3333   -3.1294    1.5621 H   0  0  0  0  0  0  0  0  0  0  0  0
   -0.6740   -0.8838   -1.4410 H   0  0  0  0  0  0  0  0  0  0  0  0
   -2.2969   -0.3997   -0.9929 H   0  0  0  0  0  0  0  0  0  0  0  0
    1.7888    0.4870    0.0977 H   0  0  0  0  0  0  0  0  0  0  0  0
    3.0412    1.0598   -1.0214 H   0  0  0  0  0  0  0  0  0  0  0  0
    3.0677   -1.1798   -2.1358 H   0  0  0  0  0  0  0  0  0  0  0  0
    2.3650   -0.9199    1.6968 H   0  0  0  0  0  0  0  0  0  0  0  0
    4.1335   -0.8662    1.5802 H   0  0  0  0  0  0  0  0  0  0  0  0
    3.3095   -2.3537    2.0804 H   0  0  0  0  0  0  0  0  0  0  0  0
    5.1638   -2.7845   -0.2324 H   0  0  0  0  0  0  0  0  0  0  0  0
    3.9083   -3.9499    0.2332 H   0  0  0  0  0  0  0  0  0  0  0  0
    4.0023   -3.3679   -1.4347 H   0  0  0  0  0  0  0  0  0  0  0  0
    1.6096    3.2223   -2.1162 H   0  0  0  0  0  0  0  0  0  0  0  0
    0.0384    4.9779   -1.3763 H   0  0  0  0  0  0  0  0  0  0  0  0
   -4.2893    4.8983    0.6905 H   0  0  0  0  0  0  0  0  0  0  0  0
   -2.1566    5.6234   -0.3169 H   0  0  0  0  0  0  0  0  0  0  0  0
  1  2  1  0
  2  3  1  0
  2  4  1  0
  4  5  2  0
  4  6  1  0
  6  7  1  0
  7  8  2  0
  8  9  1  0
  9 10  1  0
 10 11  1  0
 11 12  1  0
 12 13  1  0
 13 14  1  0
 13 15  1  0
  8 16  1  0
 16 17  2  0
 17 18  1  0
 18 19  2  0
 19 20  1  0
 20 21  1  0
 21 22  2  0
 21 23  1  0
 23 24  2  0
 19  7  1  0
 13 11  1  0
 24 18  1  0
  1 25  1  0
  1 26  1  0
  1 27  1  0
  2 28  1  0
  3 29  1  0
  3 30  1  0
  3 31  1  0
  6 32  1  0
  6 33  1  0
 10 34  1  0
 10 35  1  0
 11 36  1  6
 14 37  1  0
 14 38  1  0
 14 39  1  0
 15 40  1  0
 15 41  1  0
 15 42  1  0
 16 43  1  0
 17 44  1  0
 23 45  1  0
 24 46  1  0
M  END
>  <Name>  (220) 
Isoponcimarin

>  <PubChem ID>  (220) 
49767686

>  <CDB ID>  (220) 
CDB0220

>  <Smiles>  (220) 
CC(C)C(=O)CC1=C(OC[C@@H]2OC2(C)C)C=CC2=C1OC(=O)C=C2

>  <Chemical class>  (220) 
7-Oxygenated Coumarins

>  <Natural source>  (220) 
Poncirus trifoliata

>  <Molecular Formula>  (220) 
C19H22O5

>  <InChI-Key>  (220) 
GQNWYSYOSQOHAT-INIZCTEOSA-N

>  <Total Molweight>  (220) 
330.379

>  <cLogP>  (220) 
2.4995

>  <cLogS>  (220) 
-3.875

>  <H-Acceptors>  (220) 
5

>  <H-Donors>  (220) 
0

>  <Rotatable Bonds>  (220) 
6

>  <Polar Surface Area>  (220) 
65.13

$$$$
CDB0221
     RDKit          3D

 49 50  0  0  0  0  0  0  0  0999 V2000
    1.9975   -2.5511   -1.2711 C   0  0  0  0  0  0  0  0  0  0  0  0
    2.5097   -1.7747   -0.0607 C   0  0  0  0  0  0  0  0  0  0  0  0
    3.5864   -2.5604    0.6774 C   0  0  0  0  0  0  0  0  0  0  0  0
    1.3647   -1.4485    0.8955 C   0  0  0  0  0  0  0  0  0  0  0  0
    0.3579   -2.1603    0.9712 O   0  0  0  0  0  0  0  0  0  0  0  0
    1.5108   -0.2115    1.7641 C   0  0  0  0  0  0  0  0  0  0  0  0
    1.2687    1.0647    0.9924 C   0  0  0  0  0  0  0  0  0  0  0  0
   -0.0204    1.3827    0.5276 C   0  0  0  0  0  0  0  0  0  0  0  0
   -1.0040    0.4845    0.8418 O   0  0  0  0  0  0  0  0  0  0  0  0
   -2.1702    0.4720    0.0053 C   0  0  0  0  0  0  0  0  0  0  0  0
   -2.8913   -0.8684    0.2302 C   0  0  2  0  0  0  0  0  0  0  0  0
   -2.0634   -1.9180   -0.3145 O   0  0  0  0  0  0  0  0  0  0  0  0
   -4.2701   -0.9592   -0.4746 C   0  0  0  0  0  0  0  0  0  0  0  0
   -5.2354    0.1462   -0.0454 C   0  0  0  0  0  0  0  0  0  0  0  0
   -4.9213   -2.3272   -0.2261 C   0  0  0  0  0  0  0  0  0  0  0  0
   -4.0657   -0.8366   -1.8901 O   0  0  0  0  0  0  0  0  0  0  0  0
   -0.2402    2.5686   -0.1811 C   0  0  0  0  0  0  0  0  0  0  0  0
    0.8210    3.4367   -0.4581 C   0  0  0  0  0  0  0  0  0  0  0  0
    2.1094    3.1269   -0.0260 C   0  0  0  0  0  0  0  0  0  0  0  0
    2.3164    1.9480    0.6915 C   0  0  0  0  0  0  0  0  0  0  0  0
    3.6185    1.6092    1.1251 O   0  0  0  0  0  0  0  0  0  0  0  0
    4.7155    2.4192    0.8654 C   0  0  0  0  0  0  0  0  0  0  0  0
    5.8471    2.1247    1.2303 O   0  0  0  0  0  0  0  0  0  0  0  0
    4.4589    3.6613    0.1193 C   0  0  0  0  0  0  0  0  0  0  0  0
    3.2379    4.0010   -0.3037 C   0  0  0  0  0  0  0  0  0  0  0  0
    1.2000   -1.9970   -1.7783 H   0  0  0  0  0  0  0  0  0  0  0  0
    1.5905   -3.5262   -0.9813 H   0  0  0  0  0  0  0  0  0  0  0  0
    2.8035   -2.7219   -1.9924 H   0  0  0  0  0  0  0  0  0  0  0  0
    2.9333   -0.8333   -0.4265 H   0  0  0  0  0  0  0  0  0  0  0  0
    4.4184   -2.8055    0.0092 H   0  0  0  0  0  0  0  0  0  0  0  0
    3.9892   -1.9844    1.5170 H   0  0  0  0  0  0  0  0  0  0  0  0
    3.1868   -3.4962    1.0838 H   0  0  0  0  0  0  0  0  0  0  0  0
    0.7943   -0.2784    2.5926 H   0  0  0  0  0  0  0  0  0  0  0  0
    2.4962   -0.2319    2.2400 H   0  0  0  0  0  0  0  0  0  0  0  0
   -1.8781    0.5581   -1.0485 H   0  0  0  0  0  0  0  0  0  0  0  0
   -2.8042    1.3129    0.2996 H   0  0  0  0  0  0  0  0  0  0  0  0
   -2.9985   -1.0644    1.3040 H   0  0  0  0  0  0  0  0  0  0  0  0
   -1.2416   -1.9451    0.2295 H   0  0  0  0  0  0  0  0  0  0  0  0
   -4.8982    1.1316   -0.3828 H   0  0  0  0  0  0  0  0  0  0  0  0
   -6.2203    0.0011   -0.5049 H   0  0  0  0  0  0  0  0  0  0  0  0
   -5.3641    0.1673    1.0415 H   0  0  0  0  0  0  0  0  0  0  0  0
   -5.0986   -2.4978    0.8407 H   0  0  0  0  0  0  0  0  0  0  0  0
   -4.3015   -3.1443   -0.6114 H   0  0  0  0  0  0  0  0  0  0  0  0
   -5.8797   -2.4029   -0.7531 H   0  0  0  0  0  0  0  0  0  0  0  0
   -3.3534   -1.4783   -2.0934 H   0  0  0  0  0  0  0  0  0  0  0  0
   -1.2329    2.8480   -0.5223 H   0  0  0  0  0  0  0  0  0  0  0  0
    0.6243    4.3514   -1.0127 H   0  0  0  0  0  0  0  0  0  0  0  0
    5.3238    4.2858   -0.0690 H   0  0  0  0  0  0  0  0  0  0  0  0
    3.0724    4.9214   -0.8534 H   0  0  0  0  0  0  0  0  0  0  0  0
  1  2  1  0
  2  3  1  0
  2  4  1  0
  4  5  2  0
  4  6  1  0
  6  7  1  0
  7  8  2  0
  8  9  1  0
  9 10  1  0
 10 11  1  0
 11 12  1  0
 11 13  1  0
 13 14  1  0
 13 15  1  0
 13 16  1  0
  8 17  1  0
 17 18  2  0
 18 19  1  0
 19 20  2  0
 20 21  1  0
 21 22  1  0
 22 23  2  0
 22 24  1  0
 24 25  2  0
 20  7  1  0
 25 19  1  0
  1 26  1  0
  1 27  1  0
  1 28  1  0
  2 29  1  0
  3 30  1  0
  3 31  1  0
  3 32  1  0
  6 33  1  0
  6 34  1  0
 10 35  1  0
 10 36  1  0
 11 37  1  1
 12 38  1  0
 14 39  1  0
 14 40  1  0
 14 41  1  0
 15 42  1  0
 15 43  1  0
 15 44  1  0
 16 45  1  0
 17 46  1  0
 18 47  1  0
 24 48  1  0
 25 49  1  0
M  END
>  <Name>  (221) 
Triphasiol

>  <PubChem ID>  (221) 
157953

>  <CDB ID>  (221) 
CDB0221

>  <Smiles>  (221) 
CC(C)C(=O)CC1=C(OC[C@H](O)C(C)(C)O)C=CC2=C1OC(=O)C=C2

>  <Chemical class>  (221) 
7-Oxygenated Coumarins

>  <Natural source>  (221) 
Triphasia trifohata

>  <Molecular Formula>  (221) 
C19H24O6

>  <InChI-Key>  (221) 
DMSHDRKZHASQRO-INIZCTEOSA-N

>  <Total Molweight>  (221) 
348.394

>  <cLogP>  (221) 
1.9131

>  <cLogS>  (221) 
-3.394

>  <H-Acceptors>  (221) 
6

>  <H-Donors>  (221) 
2

>  <Rotatable Bonds>  (221) 
7

>  <Polar Surface Area>  (221) 
93.06

$$$$
CDB0222
     RDKit          3D

 33 34  0  0  0  0  0  0  0  0999 V2000
    4.2504   -0.2192    1.0490 C   0  0  0  0  0  0  0  0  0  0  0  0
    3.3349    0.0528   -0.1098 C   0  0  0  0  0  0  0  0  0  0  0  0
    3.8041    0.3074   -1.3420 C   0  0  0  0  0  0  0  0  0  0  0  0
    1.8609    0.0147    0.2119 C   0  0  0  0  0  0  0  0  0  0  0  0
    1.5179   -0.2420    1.3680 O   0  0  0  0  0  0  0  0  0  0  0  0
    0.8596    0.2869   -0.9038 C   0  0  0  0  0  0  0  0  0  0  0  0
   -0.5805    0.2512   -0.4380 C   0  0  0  0  0  0  0  0  0  0  0  0
   -1.1997    1.4002    0.0864 C   0  0  0  0  0  0  0  0  0  0  0  0
   -2.5242    1.3330    0.5370 C   0  0  0  0  0  0  0  0  0  0  0  0
   -3.2315    0.1260    0.4988 C   0  0  0  0  0  0  0  0  0  0  0  0
   -2.6225   -1.0263    0.0064 C   0  0  0  0  0  0  0  0  0  0  0  0
   -1.3085   -0.9496   -0.4546 C   0  0  0  0  0  0  0  0  0  0  0  0
   -0.6697   -2.1076   -0.9566 O   0  0  0  0  0  0  0  0  0  0  0  0
   -1.3114   -3.3363   -1.0074 C   0  0  0  0  0  0  0  0  0  0  0  0
   -0.7712   -4.3421   -1.4530 O   0  0  0  0  0  0  0  0  0  0  0  0
   -2.6954   -3.3827   -0.5081 C   0  0  0  0  0  0  0  0  0  0  0  0
   -3.3201   -2.3016   -0.0328 C   0  0  0  0  0  0  0  0  0  0  0  0
   -0.4413    2.5425    0.0944 O   0  0  0  0  0  0  0  0  0  0  0  0
   -0.8671    3.5875    0.9610 C   0  0  0  0  0  0  0  0  0  0  0  0
    4.0989    0.5224    1.8404 H   0  0  0  0  0  0  0  0  0  0  0  0
    5.3050   -0.1772    0.7560 H   0  0  0  0  0  0  0  0  0  0  0  0
    4.0627   -1.2161    1.4613 H   0  0  0  0  0  0  0  0  0  0  0  0
    4.8736    0.3237   -1.5350 H   0  0  0  0  0  0  0  0  0  0  0  0
    3.1683    0.5038   -2.1978 H   0  0  0  0  0  0  0  0  0  0  0  0
    1.0067   -0.4542   -1.6979 H   0  0  0  0  0  0  0  0  0  0  0  0
    1.0753    1.2662   -1.3465 H   0  0  0  0  0  0  0  0  0  0  0  0
   -3.0370    2.2083    0.9231 H   0  0  0  0  0  0  0  0  0  0  0  0
   -4.2559    0.1018    0.8623 H   0  0  0  0  0  0  0  0  0  0  0  0
   -3.1794   -4.3505   -0.5507 H   0  0  0  0  0  0  0  0  0  0  0  0
   -4.3400   -2.3589    0.3310 H   0  0  0  0  0  0  0  0  0  0  0  0
   -1.0301    3.2231    1.9810 H   0  0  0  0  0  0  0  0  0  0  0  0
   -1.7633    4.0776    0.5677 H   0  0  0  0  0  0  0  0  0  0  0  0
   -0.0692    4.3354    0.9983 H   0  0  0  0  0  0  0  0  0  0  0  0
  1  2  1  0
  2  3  2  0
  2  4  1  0
  4  5  2  0
  4  6  1  0
  6  7  1  0
  7  8  2  0
  8  9  1  0
  9 10  2  0
 10 11  1  0
 11 12  2  0
 12 13  1  0
 13 14  1  0
 14 15  2  0
 14 16  1  0
 16 17  2  0
  8 18  1  0
 18 19  1  0
 12  7  1  0
 17 11  1  0
  1 20  1  0
  1 21  1  0
  1 22  1  0
  3 23  1  0
  3 24  1  0
  6 25  1  0
  6 26  1  0
  9 27  1  0
 10 28  1  0
 16 29  1  0
 17 30  1  0
 19 31  1  0
 19 32  1  0
 19 33  1  0
M  END
>  <Name>  (222) 
Murrayone

>  <PubChem ID>  (222) 
5319964

>  <CDB ID>  (222) 
CDB0222

>  <Smiles>  (222) 
CC(=C)C(=O)CC1=C(C=CC2=C1OC(=O)C=C2)OC

>  <Chemical class>  (222) 
7-Oxygenated Coumarins

>  <Natural source>  (222) 
Murraya exotica

>  <Molecular Formula>  (222) 
C15H14O4

>  <InChI-Key>  (222) 
IISMOXLSZASLDD-UHFFFAOYSA-N

>  <Total Molweight>  (222) 
258.272

>  <cLogP>  (222) 
2.4636

>  <cLogS>  (222) 
-3.146

>  <H-Acceptors>  (222) 
4

>  <H-Donors>  (222) 
0

>  <Rotatable Bonds>  (222) 
4

>  <Polar Surface Area>  (222) 
52.6

$$$$
CDB0223
     RDKit          3D

 36 37  0  0  0  0  0  0  0  0999 V2000
    3.4751    0.0566    1.3188 C   0  0  0  0  0  0  0  0  0  0  0  0
    2.4367   -0.7675    0.6032 C   0  0  0  0  0  0  0  0  0  0  0  0
    1.9512   -1.8846    1.1717 C   0  0  0  0  0  0  0  0  0  0  0  0
    2.0522   -0.2446   -0.7668 C   0  0  0  0  0  0  0  0  0  0  0  0
    0.6561   -0.6226   -1.3609 C   0  0  0  0  0  0  0  0  0  0  0  0
   -0.5226    0.0205   -0.6455 C   0  0  0  0  0  0  0  0  0  0  0  0
   -0.7384    1.4156   -0.6701 C   0  0  0  0  0  0  0  0  0  0  0  0
   -1.8174    1.9758    0.0265 C   0  0  0  0  0  0  0  0  0  0  0  0
   -2.6961    1.1661    0.7511 C   0  0  0  0  0  0  0  0  0  0  0  0
   -2.5121   -0.2133    0.7779 C   0  0  0  0  0  0  0  0  0  0  0  0
   -1.4360   -0.7666    0.0803 C   0  0  0  0  0  0  0  0  0  0  0  0
   -1.2547   -2.1704    0.0925 O   0  0  0  0  0  0  0  0  0  0  0  0
   -2.0935   -3.0254    0.7932 C   0  0  0  0  0  0  0  0  0  0  0  0
   -1.9227   -4.2380    0.8210 O   0  0  0  0  0  0  0  0  0  0  0  0
   -3.2132   -2.4031    1.5158 C   0  0  0  0  0  0  0  0  0  0  0  0
   -3.4170   -1.0830    1.5132 C   0  0  0  0  0  0  0  0  0  0  0  0
    0.1373    2.1420   -1.4383 O   0  0  0  0  0  0  0  0  0  0  0  0
    0.0657    3.5618   -1.3544 C   0  0  0  0  0  0  0  0  0  0  0  0
    0.6611   -0.2304   -2.7558 O   0  0  0  0  0  0  0  0  0  0  0  0
    3.0789   -0.6901   -1.6721 O   0  0  0  0  0  0  0  0  0  0  0  0
    3.0986    1.0694    1.4963 H   0  0  0  0  0  0  0  0  0  0  0  0
    3.7463   -0.3706    2.2902 H   0  0  0  0  0  0  0  0  0  0  0  0
    4.3892    0.1239    0.7200 H   0  0  0  0  0  0  0  0  0  0  0  0
    1.2477   -2.5379    0.6688 H   0  0  0  0  0  0  0  0  0  0  0  0
    2.2849   -2.2109    2.1526 H   0  0  0  0  0  0  0  0  0  0  0  0
    2.1389    0.8475   -0.7558 H   0  0  0  0  0  0  0  0  0  0  0  0
    0.5629   -1.7120   -1.3982 H   0  0  0  0  0  0  0  0  0  0  0  0
   -2.0122    3.0438    0.0173 H   0  0  0  0  0  0  0  0  0  0  0  0
   -3.5261    1.6274    1.2814 H   0  0  0  0  0  0  0  0  0  0  0  0
   -3.8642   -3.0824    2.0524 H   0  0  0  0  0  0  0  0  0  0  0  0
   -4.2499   -0.6462    2.0535 H   0  0  0  0  0  0  0  0  0  0  0  0
    0.1950    3.9058   -0.3229 H   0  0  0  0  0  0  0  0  0  0  0  0
   -0.8708    3.9318   -1.7837 H   0  0  0  0  0  0  0  0  0  0  0  0
    0.8886    3.9717   -1.9478 H   0  0  0  0  0  0  0  0  0  0  0  0
    0.4230    0.7165   -2.7704 H   0  0  0  0  0  0  0  0  0  0  0  0
    2.6576   -0.6764   -2.5549 H   0  0  0  0  0  0  0  0  0  0  0  0
  1  2  1  0
  2  3  2  0
  2  4  1  0
  4  5  1  0
  5  6  1  0
  6  7  2  0
  7  8  1  0
  8  9  2  0
  9 10  1  0
 10 11  2  0
 11 12  1  0
 12 13  1  0
 13 14  2  0
 13 15  1  0
 15 16  2  0
  7 17  1  0
 17 18  1  0
  5 19  1  0
  4 20  1  0
 11  6  1  0
 16 10  1  0
  1 21  1  0
  1 22  1  0
  1 23  1  0
  3 24  1  0
  3 25  1  0
  4 26  1  0
  5 27  1  0
  8 28  1  0
  9 29  1  0
 15 30  1  0
 16 31  1  0
 18 32  1  0
 18 33  1  0
 18 34  1  0
 19 35  1  0
 20 36  1  0
M  END
>  <Name>  (223) 
Murrangatin

>  <PubChem ID>  (223) 
389002

>  <CDB ID>  (223) 
CDB0223

>  <Smiles>  (223) 
CC(=C)C(C(C1=C(C=CC2=C1OC(=O)C=C2)OC)O)O

>  <Chemical class>  (223) 
7-Oxygenated Coumarins

>  <Natural source>  (223) 
Murraya elongata

>  <Molecular Formula>  (223) 
C15H16O5

>  <InChI-Key>  (223) 
DKEANOQWICTXTP-UHFFFAOYSA-N

>  <Total Molweight>  (223) 
276.287

>  <cLogP>  (223) 
1.4247

>  <cLogS>  (223) 
-2.547

>  <H-Acceptors>  (223) 
5

>  <H-Donors>  (223) 
2

>  <Rotatable Bonds>  (223) 
4

>  <Polar Surface Area>  (223) 
75.99

$$$$
CDB0224
     RDKit          3D

 36 37  0  0  0  0  0  0  0  0999 V2000
    3.4751    0.0566    1.3188 C   0  0  0  0  0  0  0  0  0  0  0  0
    2.4367   -0.7675    0.6032 C   0  0  0  0  0  0  0  0  0  0  0  0
    1.9512   -1.8846    1.1717 C   0  0  0  0  0  0  0  0  0  0  0  0
    2.0522   -0.2446   -0.7668 C   0  0  0  0  0  0  0  0  0  0  0  0
    0.6561   -0.6226   -1.3609 C   0  0  0  0  0  0  0  0  0  0  0  0
   -0.5226    0.0205   -0.6455 C   0  0  0  0  0  0  0  0  0  0  0  0
   -0.7384    1.4156   -0.6701 C   0  0  0  0  0  0  0  0  0  0  0  0
   -1.8174    1.9758    0.0265 C   0  0  0  0  0  0  0  0  0  0  0  0
   -2.6961    1.1661    0.7511 C   0  0  0  0  0  0  0  0  0  0  0  0
   -2.5121   -0.2133    0.7779 C   0  0  0  0  0  0  0  0  0  0  0  0
   -1.4360   -0.7666    0.0803 C   0  0  0  0  0  0  0  0  0  0  0  0
   -1.2547   -2.1704    0.0925 O   0  0  0  0  0  0  0  0  0  0  0  0
   -2.0935   -3.0254    0.7932 C   0  0  0  0  0  0  0  0  0  0  0  0
   -1.9227   -4.2380    0.8210 O   0  0  0  0  0  0  0  0  0  0  0  0
   -3.2132   -2.4031    1.5158 C   0  0  0  0  0  0  0  0  0  0  0  0
   -3.4170   -1.0830    1.5132 C   0  0  0  0  0  0  0  0  0  0  0  0
    0.1373    2.1420   -1.4383 O   0  0  0  0  0  0  0  0  0  0  0  0
    0.0657    3.5618   -1.3544 C   0  0  0  0  0  0  0  0  0  0  0  0
    0.6611   -0.2304   -2.7558 O   0  0  0  0  0  0  0  0  0  0  0  0
    3.0789   -0.6901   -1.6721 O   0  0  0  0  0  0  0  0  0  0  0  0
    3.0986    1.0694    1.4963 H   0  0  0  0  0  0  0  0  0  0  0  0
    3.7463   -0.3706    2.2902 H   0  0  0  0  0  0  0  0  0  0  0  0
    4.3892    0.1239    0.7200 H   0  0  0  0  0  0  0  0  0  0  0  0
    1.2477   -2.5379    0.6688 H   0  0  0  0  0  0  0  0  0  0  0  0
    2.2849   -2.2109    2.1526 H   0  0  0  0  0  0  0  0  0  0  0  0
    2.1389    0.8475   -0.7558 H   0  0  0  0  0  0  0  0  0  0  0  0
    0.5629   -1.7120   -1.3982 H   0  0  0  0  0  0  0  0  0  0  0  0
   -2.0122    3.0438    0.0173 H   0  0  0  0  0  0  0  0  0  0  0  0
   -3.5261    1.6274    1.2814 H   0  0  0  0  0  0  0  0  0  0  0  0
   -3.8642   -3.0824    2.0524 H   0  0  0  0  0  0  0  0  0  0  0  0
   -4.2499   -0.6462    2.0535 H   0  0  0  0  0  0  0  0  0  0  0  0
    0.1950    3.9058   -0.3229 H   0  0  0  0  0  0  0  0  0  0  0  0
   -0.8708    3.9318   -1.7837 H   0  0  0  0  0  0  0  0  0  0  0  0
    0.8886    3.9717   -1.9478 H   0  0  0  0  0  0  0  0  0  0  0  0
    0.4230    0.7165   -2.7704 H   0  0  0  0  0  0  0  0  0  0  0  0
    2.6576   -0.6764   -2.5549 H   0  0  0  0  0  0  0  0  0  0  0  0
  1  2  1  0
  2  3  2  0
  2  4  1  0
  4  5  1  0
  5  6  1  0
  6  7  2  0
  7  8  1  0
  8  9  2  0
  9 10  1  0
 10 11  2  0
 11 12  1  0
 12 13  1  0
 13 14  2  0
 13 15  1  0
 15 16  2  0
  7 17  1  0
 17 18  1  0
  5 19  1  0
  4 20  1  0
 11  6  1  0
 16 10  1  0
  1 21  1  0
  1 22  1  0
  1 23  1  0
  3 24  1  0
  3 25  1  0
  4 26  1  0
  5 27  1  0
  8 28  1  0
  9 29  1  0
 15 30  1  0
 16 31  1  0
 18 32  1  0
 18 33  1  0
 18 34  1  0
 19 35  1  0
 20 36  1  0
M  END
>  <Name>  (224) 
Minumicrolin (Murpanidin)

>  <PubChem ID>  (224) 
6426907

>  <CDB ID>  (224) 
CDB0224

>  <Smiles>  (224) 
CC(=C)C(C(C1=C(C=CC2=C1OC(=O)C=C2)OC)O)O

>  <Chemical class>  (224) 
7-Oxygenated Coumarins

>  <Natural source>  (224) 
Micromelum minutum

>  <Molecular Formula>  (224) 
C15H16O5

>  <InChI-Key>  (224) 
DKEANOQWICTXTP-UHFFFAOYSA-N

>  <Total Molweight>  (224) 
276.287

>  <cLogP>  (224) 
1.4247

>  <cLogS>  (224) 
-2.547

>  <H-Acceptors>  (224) 
5

>  <H-Donors>  (224) 
2

>  <Rotatable Bonds>  (224) 
4

>  <Polar Surface Area>  (224) 
75.99

$$$$
CDB0225
     RDKit          3D

 39 40  0  0  0  0  0  0  0  0999 V2000
   -3.4248    1.1810   -0.3405 C   0  0  0  0  0  0  0  0  0  0  0  0
   -2.6015   -0.0598   -0.5515 C   0  0  0  0  0  0  0  0  0  0  0  0
   -2.4749   -0.6016   -1.7763 C   0  0  0  0  0  0  0  0  0  0  0  0
   -1.9802   -0.6570    0.7017 C   0  0  0  0  0  0  0  0  0  0  0  0
   -0.7264    0.1013    1.2566 C   0  0  0  0  0  0  0  0  0  0  0  0
    0.4368    0.1596    0.2683 C   0  0  0  0  0  0  0  0  0  0  0  0
    0.6764    1.3346   -0.4760 C   0  0  0  0  0  0  0  0  0  0  0  0
    1.7282    1.3805   -1.4016 C   0  0  0  0  0  0  0  0  0  0  0  0
    2.5430    0.2657   -1.6141 C   0  0  0  0  0  0  0  0  0  0  0  0
    2.3225   -0.9055   -0.8955 C   0  0  0  0  0  0  0  0  0  0  0  0
    1.2807   -0.9444    0.0344 C   0  0  0  0  0  0  0  0  0  0  0  0
    1.0695   -2.1309    0.7789 O   0  0  0  0  0  0  0  0  0  0  0  0
    1.8502   -3.2651    0.6185 C   0  0  0  0  0  0  0  0  0  0  0  0
    1.6743   -4.2860    1.2728 O   0  0  0  0  0  0  0  0  0  0  0  0
    2.9246   -3.1874   -0.3829 C   0  0  0  0  0  0  0  0  0  0  0  0
    3.1545   -2.0819   -1.0963 C   0  0  0  0  0  0  0  0  0  0  0  0
   -0.1463    2.4004   -0.2136 O   0  0  0  0  0  0  0  0  0  0  0  0
   -0.1673    3.4573   -1.1660 C   0  0  0  0  0  0  0  0  0  0  0  0
   -0.3460   -0.5541    2.4892 O   0  0  0  0  0  0  0  0  0  0  0  0
    0.4413    0.2763    3.3341 C   0  0  0  0  0  0  0  0  0  0  0  0
   -1.6986   -2.0483    0.4919 O   0  0  0  0  0  0  0  0  0  0  0  0
   -2.8248    1.9781    0.1069 H   0  0  0  0  0  0  0  0  0  0  0  0
   -4.2659    0.9669    0.3269 H   0  0  0  0  0  0  0  0  0  0  0  0
   -3.8364    1.5665   -1.2794 H   0  0  0  0  0  0  0  0  0  0  0  0
   -1.8977   -1.5097   -1.9296 H   0  0  0  0  0  0  0  0  0  0  0  0
   -2.9455   -0.1648   -2.6502 H   0  0  0  0  0  0  0  0  0  0  0  0
   -2.7434   -0.6554    1.4909 H   0  0  0  0  0  0  0  0  0  0  0  0
   -1.0524    1.1129    1.5265 H   0  0  0  0  0  0  0  0  0  0  0  0
    1.9457    2.2780   -1.9722 H   0  0  0  0  0  0  0  0  0  0  0  0
    3.3485    0.3294   -2.3417 H   0  0  0  0  0  0  0  0  0  0  0  0
    3.5208   -4.0831   -0.5052 H   0  0  0  0  0  0  0  0  0  0  0  0
    3.9530   -2.0472   -1.8292 H   0  0  0  0  0  0  0  0  0  0  0  0
   -0.3585    3.0822   -2.1771 H   0  0  0  0  0  0  0  0  0  0  0  0
   -0.9895    4.1286   -0.8998 H   0  0  0  0  0  0  0  0  0  0  0  0
    0.7606    4.0364   -1.1255 H   0  0  0  0  0  0  0  0  0  0  0  0
    0.6780   -0.2877    4.2404 H   0  0  0  0  0  0  0  0  0  0  0  0
    1.3801    0.5574    2.8487 H   0  0  0  0  0  0  0  0  0  0  0  0
   -0.1184    1.1717    3.6209 H   0  0  0  0  0  0  0  0  0  0  0  0
   -1.0901   -2.2948    1.2167 H   0  0  0  0  0  0  0  0  0  0  0  0
  1  2  1  0
  2  3  2  0
  2  4  1  0
  4  5  1  0
  5  6  1  0
  6  7  2  0
  7  8  1  0
  8  9  2  0
  9 10  1  0
 10 11  2  0
 11 12  1  0
 12 13  1  0
 13 14  2  0
 13 15  1  0
 15 16  2  0
  7 17  1  0
 17 18  1  0
  5 19  1  0
 19 20  1  0
  4 21  1  0
 11  6  1  0
 16 10  1  0
  1 22  1  0
  1 23  1  0
  1 24  1  0
  3 25  1  0
  3 26  1  0
  4 27  1  0
  5 28  1  0
  8 29  1  0
  9 30  1  0
 15 31  1  0
 16 32  1  0
 18 33  1  0
 18 34  1  0
 18 35  1  0
 20 36  1  0
 20 37  1  0
 20 38  1  0
 21 39  1  0
M  END
>  <Name>  (225) 
( - )-Murracarpin

>  <PubChem ID>  (225) 
14102500

>  <CDB ID>  (225) 
CDB0225

>  <Smiles>  (225) 
CC(=C)C(C(C1=C(C=CC2=C1OC(=O)C=C2)OC)OC)O

>  <Chemical class>  (225) 
7-Oxygenated Coumarins

>  <Natural source>  (225) 
Murraya paniculata

>  <Molecular Formula>  (225) 
C16H18O5

>  <InChI-Key>  (225) 
DBPWCIPDCMVUFT-UHFFFAOYSA-N

>  <Total Molweight>  (225) 
290.314

>  <cLogP>  (225) 
1.8526

>  <cLogS>  (225) 
-2.675

>  <H-Acceptors>  (225) 
5

>  <H-Donors>  (225) 
1

>  <Rotatable Bonds>  (225) 
5

>  <Polar Surface Area>  (225) 
64.99

$$$$
CDB0226
     RDKit          3D

 39 40  0  0  0  0  0  0  0  0999 V2000
   -3.4248    1.1810   -0.3405 C   0  0  0  0  0  0  0  0  0  0  0  0
   -2.6015   -0.0598   -0.5515 C   0  0  0  0  0  0  0  0  0  0  0  0
   -2.4749   -0.6016   -1.7763 C   0  0  0  0  0  0  0  0  0  0  0  0
   -1.9802   -0.6570    0.7017 C   0  0  0  0  0  0  0  0  0  0  0  0
   -0.7264    0.1013    1.2566 C   0  0  0  0  0  0  0  0  0  0  0  0
    0.4368    0.1596    0.2683 C   0  0  0  0  0  0  0  0  0  0  0  0
    0.6764    1.3346   -0.4760 C   0  0  0  0  0  0  0  0  0  0  0  0
    1.7282    1.3805   -1.4016 C   0  0  0  0  0  0  0  0  0  0  0  0
    2.5430    0.2657   -1.6141 C   0  0  0  0  0  0  0  0  0  0  0  0
    2.3225   -0.9055   -0.8955 C   0  0  0  0  0  0  0  0  0  0  0  0
    1.2807   -0.9444    0.0344 C   0  0  0  0  0  0  0  0  0  0  0  0
    1.0695   -2.1309    0.7789 O   0  0  0  0  0  0  0  0  0  0  0  0
    1.8502   -3.2651    0.6185 C   0  0  0  0  0  0  0  0  0  0  0  0
    1.6743   -4.2860    1.2728 O   0  0  0  0  0  0  0  0  0  0  0  0
    2.9246   -3.1874   -0.3829 C   0  0  0  0  0  0  0  0  0  0  0  0
    3.1545   -2.0819   -1.0963 C   0  0  0  0  0  0  0  0  0  0  0  0
   -0.1463    2.4004   -0.2136 O   0  0  0  0  0  0  0  0  0  0  0  0
   -0.1673    3.4573   -1.1660 C   0  0  0  0  0  0  0  0  0  0  0  0
   -0.3460   -0.5541    2.4892 O   0  0  0  0  0  0  0  0  0  0  0  0
    0.4413    0.2763    3.3341 C   0  0  0  0  0  0  0  0  0  0  0  0
   -1.6986   -2.0483    0.4919 O   0  0  0  0  0  0  0  0  0  0  0  0
   -2.8248    1.9781    0.1069 H   0  0  0  0  0  0  0  0  0  0  0  0
   -4.2659    0.9669    0.3269 H   0  0  0  0  0  0  0  0  0  0  0  0
   -3.8364    1.5665   -1.2794 H   0  0  0  0  0  0  0  0  0  0  0  0
   -1.8977   -1.5097   -1.9296 H   0  0  0  0  0  0  0  0  0  0  0  0
   -2.9455   -0.1648   -2.6502 H   0  0  0  0  0  0  0  0  0  0  0  0
   -2.7434   -0.6554    1.4909 H   0  0  0  0  0  0  0  0  0  0  0  0
   -1.0524    1.1129    1.5265 H   0  0  0  0  0  0  0  0  0  0  0  0
    1.9457    2.2780   -1.9722 H   0  0  0  0  0  0  0  0  0  0  0  0
    3.3485    0.3294   -2.3417 H   0  0  0  0  0  0  0  0  0  0  0  0
    3.5208   -4.0831   -0.5052 H   0  0  0  0  0  0  0  0  0  0  0  0
    3.9530   -2.0472   -1.8292 H   0  0  0  0  0  0  0  0  0  0  0  0
   -0.3585    3.0822   -2.1771 H   0  0  0  0  0  0  0  0  0  0  0  0
   -0.9895    4.1286   -0.8998 H   0  0  0  0  0  0  0  0  0  0  0  0
    0.7606    4.0364   -1.1255 H   0  0  0  0  0  0  0  0  0  0  0  0
    0.6780   -0.2877    4.2404 H   0  0  0  0  0  0  0  0  0  0  0  0
    1.3801    0.5574    2.8487 H   0  0  0  0  0  0  0  0  0  0  0  0
   -0.1184    1.1717    3.6209 H   0  0  0  0  0  0  0  0  0  0  0  0
   -1.0901   -2.2948    1.2167 H   0  0  0  0  0  0  0  0  0  0  0  0
  1  2  1  0
  2  3  2  0
  2  4  1  0
  4  5  1  0
  5  6  1  0
  6  7  2  0
  7  8  1  0
  8  9  2  0
  9 10  1  0
 10 11  2  0
 11 12  1  0
 12 13  1  0
 13 14  2  0
 13 15  1  0
 15 16  2  0
  7 17  1  0
 17 18  1  0
  5 19  1  0
 19 20  1  0
  4 21  1  0
 11  6  1  0
 16 10  1  0
  1 22  1  0
  1 23  1  0
  1 24  1  0
  3 25  1  0
  3 26  1  0
  4 27  1  0
  5 28  1  0
  8 29  1  0
  9 30  1  0
 15 31  1  0
 16 32  1  0
 18 33  1  0
 18 34  1  0
 18 35  1  0
 20 36  1  0
 20 37  1  0
 20 38  1  0
 21 39  1  0
M  END
>  <Name>  (226) 
Albiflorin-3

>  <PubChem ID>  (226) 
5319464

>  <CDB ID>  (226) 
CDB0226

>  <Smiles>  (226) 
CC(=C)C(C(C1=C(C=CC2=C1OC(=O)C=C2)OC)OC)O

>  <Chemical class>  (226) 
7-Oxygenated Coumarins

>  <Natural source>  (226) 
Boenninghausenia albiflora

>  <Molecular Formula>  (226) 
C16H18O5

>  <InChI-Key>  (226) 
DBPWCIPDCMVUFT-UHFFFAOYSA-N

>  <Total Molweight>  (226) 
290.314

>  <cLogP>  (226) 
1.8526

>  <cLogS>  (226) 
-2.675

>  <H-Acceptors>  (226) 
5

>  <H-Donors>  (226) 
1

>  <Rotatable Bonds>  (226) 
5

>  <Polar Surface Area>  (226) 
64.99

$$$$
CDB0227
     RDKit          3D

 42 43  0  0  0  0  0  0  0  0999 V2000
   -0.4140   -2.5828   -1.6573 C   0  0  0  0  0  0  0  0  0  0  0  0
   -1.6808   -1.9871   -1.0708 C   0  0  0  0  0  0  0  0  0  0  0  0
   -1.4336   -1.2480    0.1203 O   0  0  0  0  0  0  0  0  0  0  0  0
   -0.8009    0.0293   -0.0768 C   0  0  0  0  0  0  0  0  0  0  0  0
    0.6822   -0.0529    0.2839 C   0  0  0  0  0  0  0  0  0  0  0  0
    1.1364   -0.6224    1.4917 C   0  0  0  0  0  0  0  0  0  0  0  0
    2.5102   -0.6685    1.7700 C   0  0  0  0  0  0  0  0  0  0  0  0
    3.4445   -0.1503    0.8678 C   0  0  0  0  0  0  0  0  0  0  0  0
    3.0158    0.4333   -0.3200 C   0  0  0  0  0  0  0  0  0  0  0  0
    1.6479    0.4798   -0.5925 C   0  0  0  0  0  0  0  0  0  0  0  0
    1.1998    1.0931   -1.7884 O   0  0  0  0  0  0  0  0  0  0  0  0
    2.0750    1.6439   -2.7136 C   0  0  0  0  0  0  0  0  0  0  0  0
    1.6836    2.1734   -3.7466 O   0  0  0  0  0  0  0  0  0  0  0  0
    3.5086    1.5643   -2.3963 C   0  0  0  0  0  0  0  0  0  0  0  0
    3.9585    0.9975   -1.2733 C   0  0  0  0  0  0  0  0  0  0  0  0
    0.1738   -1.0770    2.3530 O   0  0  0  0  0  0  0  0  0  0  0  0
    0.5888   -1.8555    3.4662 C   0  0  0  0  0  0  0  0  0  0  0  0
   -1.5208    1.1287    0.7737 C   0  0  0  0  0  0  0  0  0  0  0  0
   -3.0058    1.2762    0.4606 C   0  0  0  0  0  0  0  0  0  0  0  0
   -3.9454    0.9804    1.3768 C   0  0  0  0  0  0  0  0  0  0  0  0
   -3.3961    1.7713   -0.9047 C   0  0  0  0  0  0  0  0  0  0  0  0
   -0.9232    2.4217    0.5876 O   0  0  0  0  0  0  0  0  0  0  0  0
    0.2408   -1.8047   -2.0592 H   0  0  0  0  0  0  0  0  0  0  0  0
    0.1519   -3.1234   -0.8919 H   0  0  0  0  0  0  0  0  0  0  0  0
   -0.6556   -3.2716   -2.4721 H   0  0  0  0  0  0  0  0  0  0  0  0
   -2.3568   -2.8039   -0.7967 H   0  0  0  0  0  0  0  0  0  0  0  0
   -2.2086   -1.3685   -1.8051 H   0  0  0  0  0  0  0  0  0  0  0  0
   -0.8997    0.3109   -1.1313 H   0  0  0  0  0  0  0  0  0  0  0  0
    2.8877   -1.0919    2.6956 H   0  0  0  0  0  0  0  0  0  0  0  0
    4.5020   -0.1991    1.1159 H   0  0  0  0  0  0  0  0  0  0  0  0
    4.1800    1.9964   -3.1281 H   0  0  0  0  0  0  0  0  0  0  0  0
    5.0204    0.9519   -1.0570 H   0  0  0  0  0  0  0  0  0  0  0  0
   -0.3100   -2.2278    3.9672 H   0  0  0  0  0  0  0  0  0  0  0  0
    1.1411   -1.2440    4.1869 H   0  0  0  0  0  0  0  0  0  0  0  0
    1.1767   -2.7235    3.1495 H   0  0  0  0  0  0  0  0  0  0  0  0
   -1.4105    0.8933    1.8386 H   0  0  0  0  0  0  0  0  0  0  0  0
   -3.6761    0.6213    2.3660 H   0  0  0  0  0  0  0  0  0  0  0  0
   -5.0047    1.0858    1.1654 H   0  0  0  0  0  0  0  0  0  0  0  0
   -2.9885    2.7705   -1.0859 H   0  0  0  0  0  0  0  0  0  0  0  0
   -4.4835    1.8379   -1.0201 H   0  0  0  0  0  0  0  0  0  0  0  0
   -3.0283    1.0972   -1.6834 H   0  0  0  0  0  0  0  0  0  0  0  0
   -0.7829    2.5449   -0.3653 H   0  0  0  0  0  0  0  0  0  0  0  0
  1  2  1  0
  2  3  1  0
  3  4  1  0
  4  5  1  0
  5  6  2  0
  6  7  1  0
  7  8  2  0
  8  9  1  0
  9 10  2  0
 10 11  1  0
 11 12  1  0
 12 13  2  0
 12 14  1  0
 14 15  2  0
  6 16  1  0
 16 17  1  0
  4 18  1  0
 18 19  1  0
 19 20  2  0
 19 21  1  0
 18 22  1  0
 10  5  1  0
 15  9  1  0
  1 23  1  0
  1 24  1  0
  1 25  1  0
  2 26  1  0
  2 27  1  0
  4 28  1  0
  7 29  1  0
  8 30  1  0
 14 31  1  0
 15 32  1  0
 17 33  1  0
 17 34  1  0
 17 35  1  0
 18 36  1  0
 20 37  1  0
 20 38  1  0
 21 39  1  0
 21 40  1  0
 21 41  1  0
 22 42  1  0
M  END
>  <Name>  (227) 
Murpanicin (Murraxocin)

>  <PubChem ID>  (227) 
188750

>  <CDB ID>  (227) 
CDB0227

>  <Smiles>  (227) 
CCOC(C1=C(C=CC2=C1OC(=O)C=C2)OC)C(C(=C)C)O

>  <Chemical class>  (227) 
7-Oxygenated Coumarins

>  <Natural source>  (227) 
Murraya paniculata

>  <Molecular Formula>  (227) 
C17H20O5

>  <InChI-Key>  (227) 
GDLSTIJVZWVVPB-UHFFFAOYSA-N

>  <Total Molweight>  (227) 
304.341

>  <cLogP>  (227) 
2.2589

>  <cLogS>  (227) 
-2.975

>  <H-Acceptors>  (227) 
5

>  <H-Donors>  (227) 
1

>  <Rotatable Bonds>  (227) 
6

>  <Polar Surface Area>  (227) 
64.99

$$$$
CDB0228
     RDKit          3D

 35 36  0  0  0  0  0  0  0  0999 V2000
    2.6269   -1.4908    1.2270 C   0  0  0  0  0  0  0  0  0  0  0  0
    2.4134   -0.0648    0.7954 C   0  0  0  0  0  0  0  0  0  0  0  0
    2.3676    0.9315    1.6978 C   0  0  0  0  0  0  0  0  0  0  0  0
    2.2691    0.2025   -0.6941 C   0  0  0  0  0  0  0  0  0  0  0  0
    0.9761   -0.3929   -1.3209 C   0  0  0  0  0  0  0  0  0  0  0  0
   -0.3357    0.0396   -0.6878 C   0  0  0  0  0  0  0  0  0  0  0  0
   -0.7209    1.3934   -0.5907 C   0  0  0  0  0  0  0  0  0  0  0  0
   -1.9385    1.7356    0.0145 C   0  0  0  0  0  0  0  0  0  0  0  0
   -2.7910    0.7499    0.5195 C   0  0  0  0  0  0  0  0  0  0  0  0
   -2.4344   -0.5917    0.4290 C   0  0  0  0  0  0  0  0  0  0  0  0
   -1.2185   -0.9280   -0.1692 C   0  0  0  0  0  0  0  0  0  0  0  0
   -0.8470   -2.2922   -0.2575 O   0  0  0  0  0  0  0  0  0  0  0  0
   -1.6447   -3.3163    0.2333 C   0  0  0  0  0  0  0  0  0  0  0  0
   -1.3173   -4.4947    0.1661 O   0  0  0  0  0  0  0  0  0  0  0  0
   -2.9198   -2.9196    0.8497 C   0  0  0  0  0  0  0  0  0  0  0  0
   -3.2978   -1.6419    0.9456 C   0  0  0  0  0  0  0  0  0  0  0  0
    0.1574    2.3135   -1.0983 O   0  0  0  0  0  0  0  0  0  0  0  0
   -0.2912    3.6565   -1.2334 C   0  0  0  0  0  0  0  0  0  0  0  0
    0.9321   -0.0324   -3.0978 Cl  0  0  0  0  0  0  0  0  0  0  0  0
    3.4325   -0.3572   -1.3260 O   0  0  0  0  0  0  0  0  0  0  0  0
    3.5443   -1.8957    0.7887 H   0  0  0  0  0  0  0  0  0  0  0  0
    2.7188   -1.5783    2.3152 H   0  0  0  0  0  0  0  0  0  0  0  0
    1.7866   -2.1201    0.9204 H   0  0  0  0  0  0  0  0  0  0  0  0
    2.2217    1.9645    1.3961 H   0  0  0  0  0  0  0  0  0  0  0  0
    2.4810    0.7420    2.7608 H   0  0  0  0  0  0  0  0  0  0  0  0
    2.3271    1.2807   -0.8780 H   0  0  0  0  0  0  0  0  0  0  0  0
    1.0767   -1.4822   -1.3072 H   0  0  0  0  0  0  0  0  0  0  0  0
   -2.2537    2.7697    0.1153 H   0  0  0  0  0  0  0  0  0  0  0  0
   -3.7288    1.0476    0.9827 H   0  0  0  0  0  0  0  0  0  0  0  0
   -3.5354   -3.7286    1.2233 H   0  0  0  0  0  0  0  0  0  0  0  0
   -4.2428   -1.3727    1.4049 H   0  0  0  0  0  0  0  0  0  0  0  0
   -0.4309    4.1218   -0.2524 H   0  0  0  0  0  0  0  0  0  0  0  0
   -1.2047    3.7135   -1.8346 H   0  0  0  0  0  0  0  0  0  0  0  0
    0.4884    4.2168   -1.7585 H   0  0  0  0  0  0  0  0  0  0  0  0
    3.3334   -0.1790   -2.2791 H   0  0  0  0  0  0  0  0  0  0  0  0
  1  2  1  0
  2  3  2  0
  2  4  1  0
  4  5  1  0
  5  6  1  0
  6  7  2  0
  7  8  1  0
  8  9  2  0
  9 10  1  0
 10 11  2  0
 11 12  1  0
 12 13  1  0
 13 14  2  0
 13 15  1  0
 15 16  2  0
  7 17  1  0
 17 18  1  0
  5 19  1  0
  4 20  1  0
 11  6  1  0
 16 10  1  0
  1 21  1  0
  1 22  1  0
  1 23  1  0
  3 24  1  0
  3 25  1  0
  4 26  1  0
  5 27  1  0
  8 28  1  0
  9 29  1  0
 15 30  1  0
 16 31  1  0
 18 32  1  0
 18 33  1  0
 18 34  1  0
 20 35  1  0
M  END
>  <Name>  (228) 
Chloculol

>  <PubChem ID>  (228) 
183084

>  <CDB ID>  (228) 
CDB0228

>  <Smiles>  (228) 
CC(=C)C(C(C1=C(C=CC2=C1OC(=O)C=C2)OC)Cl)O

>  <Chemical class>  (228) 
7-Oxygenated Coumarins

>  <Natural source>  (228) 
Murraya panicuiata

>  <Molecular Formula>  (228) 
C15H15ClO4

>  <InChI-Key>  (228) 
HROGOCUMIJWOHN-UHFFFAOYSA-N

>  <Total Molweight>  (228) 
294.733

>  <cLogP>  (228) 
3.1411

>  <cLogS>  (228) 
-3.487

>  <H-Acceptors>  (228) 
4

>  <H-Donors>  (228) 
1

>  <Rotatable Bonds>  (228) 
4

>  <Polar Surface Area>  (228) 
55.76

$$$$
CDB0229
     RDKit          3D

 56 58  0  0  0  0  0  0  0  0999 V2000
   -0.2759   -2.6096   -0.8061 C   0  0  0  0  0  0  0  0  0  0  0  0
   -0.4566   -1.0825   -0.7415 C   0  0  0  0  0  0  0  0  0  0  0  0
   -0.8294   -0.5336   -2.1267 C   0  0  0  0  0  0  0  0  0  0  0  0
    0.8475   -0.3964   -0.1959 C   0  0  0  0  0  0  0  0  0  0  0  0
    2.0714   -0.4565   -1.1316 C   0  0  0  0  0  0  0  0  0  0  0  0
    3.2084    0.4269   -0.6532 C   0  0  0  0  0  0  0  0  0  0  0  0
    3.1609    1.8150   -0.8336 C   0  0  0  0  0  0  0  0  0  0  0  0
    4.1928    2.6429   -0.3877 C   0  0  0  0  0  0  0  0  0  0  0  0
    5.3017    2.0881    0.2553 C   0  0  0  0  0  0  0  0  0  0  0  0
    5.3780    0.7083    0.4507 C   0  0  0  0  0  0  0  0  0  0  0  0
    4.3344   -0.1025   -0.0043 C   0  0  0  0  0  0  0  0  0  0  0  0
    4.3991   -1.5019    0.1896 O   0  0  0  0  0  0  0  0  0  0  0  0
    5.4796   -2.1130    0.8088 C   0  0  0  0  0  0  0  0  0  0  0  0
    5.5546   -3.3263    0.9620 O   0  0  0  0  0  0  0  0  0  0  0  0
    6.5560   -1.2275    1.2822 C   0  0  0  0  0  0  0  0  0  0  0  0
    6.5169    0.0978    1.1183 C   0  0  0  0  0  0  0  0  0  0  0  0
    2.0735    2.3580   -1.4597 O   0  0  0  0  0  0  0  0  0  0  0  0
    1.2044   -1.0214    1.0549 O   0  0  0  0  0  0  0  0  0  0  0  0
   -1.4687   -0.7337    0.2332 O   0  0  0  0  0  0  0  0  0  0  0  0
   -2.8037   -1.1702    0.0343 C   0  0  0  0  0  0  0  0  0  0  0  0
   -3.5373   -1.3054    1.3957 C   0  0  0  0  0  0  0  0  0  0  0  0
   -3.9137    0.0590    2.0059 C   0  0  0  0  0  0  0  0  0  0  0  0
   -4.5661    0.9692    0.9523 C   0  0  0  0  0  0  0  0  0  0  0  0
   -3.6939    1.0125   -0.3152 C   0  0  0  0  0  0  0  0  0  0  0  0
   -3.5259   -0.3075   -0.8516 O   0  0  0  0  0  0  0  0  0  0  0  0
   -4.3032    1.9001   -1.4065 C   0  0  0  0  0  0  0  0  0  0  0  0
   -4.2079    3.2814   -1.0645 O   0  0  0  0  0  0  0  0  0  0  0  0
   -5.8834    0.4868    0.6527 O   0  0  0  0  0  0  0  0  0  0  0  0
   -2.7760    0.6970    2.5883 O   0  0  0  0  0  0  0  0  0  0  0  0
   -4.7598   -2.0539    1.2096 O   0  0  0  0  0  0  0  0  0  0  0  0
    0.6123   -2.8901   -1.3801 H   0  0  0  0  0  0  0  0  0  0  0  0
   -0.1993   -3.0434    0.1967 H   0  0  0  0  0  0  0  0  0  0  0  0
   -1.1277   -3.0973   -1.2914 H   0  0  0  0  0  0  0  0  0  0  0  0
   -0.0746   -0.7677   -2.8825 H   0  0  0  0  0  0  0  0  0  0  0  0
   -1.7675   -0.9644   -2.4911 H   0  0  0  0  0  0  0  0  0  0  0  0
   -0.9689    0.5523   -2.0906 H   0  0  0  0  0  0  0  0  0  0  0  0
    0.5989    0.6453    0.0457 H   0  0  0  0  0  0  0  0  0  0  0  0
    2.4242   -1.4892   -1.2260 H   0  0  0  0  0  0  0  0  0  0  0  0
    1.8188   -0.1329   -2.1462 H   0  0  0  0  0  0  0  0  0  0  0  0
    4.1505    3.7190   -0.5297 H   0  0  0  0  0  0  0  0  0  0  0  0
    6.0990    2.7430    0.5989 H   0  0  0  0  0  0  0  0  0  0  0  0
    7.3875   -1.7191    1.7724 H   0  0  0  0  0  0  0  0  0  0  0  0
    7.3236    0.7287    1.4749 H   0  0  0  0  0  0  0  0  0  0  0  0
    2.2047    3.3170   -1.5476 H   0  0  0  0  0  0  0  0  0  0  0  0
    1.7994   -0.4064    1.5159 H   0  0  0  0  0  0  0  0  0  0  0  0
   -2.8174   -2.1577   -0.4344 H   0  0  0  0  0  0  0  0  0  0  0  0
   -2.9058   -1.8575    2.1019 H   0  0  0  0  0  0  0  0  0  0  0  0
   -4.6342   -0.1175    2.8151 H   0  0  0  0  0  0  0  0  0  0  0  0
   -4.6746    1.9832    1.3533 H   0  0  0  0  0  0  0  0  0  0  0  0
   -2.7090    1.4265   -0.0624 H   0  0  0  0  0  0  0  0  0  0  0  0
   -3.7841    1.7478   -2.3598 H   0  0  0  0  0  0  0  0  0  0  0  0
   -5.3554    1.6560   -1.5848 H   0  0  0  0  0  0  0  0  0  0  0  0
   -3.2688    3.5265   -1.1252 H   0  0  0  0  0  0  0  0  0  0  0  0
   -5.8050   -0.4789    0.5017 H   0  0  0  0  0  0  0  0  0  0  0  0
   -3.1044    1.4457    3.1165 H   0  0  0  0  0  0  0  0  0  0  0  0
   -4.4998   -2.9700    1.0019 H   0  0  0  0  0  0  0  0  0  0  0  0
  1  2  1  0
  2  3  1  0
  2  4  1  0
  4  5  1  0
  5  6  1  0
  6  7  2  0
  7  8  1  0
  8  9  2  0
  9 10  1  0
 10 11  2  0
 11 12  1  0
 12 13  1  0
 13 14  2  0
 13 15  1  0
 15 16  2  0
  7 17  1  0
  4 18  1  0
  2 19  1  0
 19 20  1  0
 20 21  1  0
 21 22  1  0
 22 23  1  0
 23 24  1  0
 24 25  1  0
 24 26  1  0
 26 27  1  0
 23 28  1  0
 22 29  1  0
 21 30  1  0
 11  6  1  0
 16 10  1  0
 25 20  1  0
  1 31  1  0
  1 32  1  0
  1 33  1  0
  3 34  1  0
  3 35  1  0
  3 36  1  0
  4 37  1  0
  5 38  1  0
  5 39  1  0
  8 40  1  0
  9 41  1  0
 15 42  1  0
 16 43  1  0
 17 44  1  0
 18 45  1  0
 20 46  1  0
 21 47  1  0
 22 48  1  0
 23 49  1  0
 24 50  1  0
 26 51  1  0
 26 52  1  0
 27 53  1  0
 28 54  1  0
 29 55  1  0
 30 56  1  0
M  END
>  <Name>  (229) 
Tortuoside

>  <PubChem ID>  (229) 
5491576

>  <CDB ID>  (229) 
CDB0229

>  <Smiles>  (229) 
CC(C)(C(CC1=C(C=CC2=C1OC(=O)C=C2)O)O)OC3C(C(C(C(O3)CO)O)O)O

>  <Chemical class>  (229) 
7-Oxygenated Coumarins

>  <Natural source>  (229) 
Seseli tortuosum

>  <Molecular Formula>  (229) 
C20H26O10

>  <InChI-Key>  (229) 
NXXWVYSMCQDTBE-UHFFFAOYSA-N

>  <Total Molweight>  (229) 
426.416

>  <cLogP>  (229) 
-0.6801

>  <cLogS>  (229) 
-2.128

>  <H-Acceptors>  (229) 
10

>  <H-Donors>  (229) 
6

>  <Rotatable Bonds>  (229) 
6

>  <Polar Surface Area>  (229) 
166.14

$$$$
CDB0230
     RDKit          3D

 52 53  0  0  0  0  0  0  0  0999 V2000
    3.1975   -0.8829    3.8488 C   0  0  0  0  0  0  0  0  0  0  0  0
    2.4136   -0.3084    2.8108 O   0  0  0  0  0  0  0  0  0  0  0  0
    3.0349   -0.0208    1.6239 C   0  0  0  0  0  0  0  0  0  0  0  0
    2.2159    0.5241    0.6161 C   0  0  0  0  0  0  0  0  0  0  0  0
    0.7424    0.7841    0.8450 C   0  0  0  0  0  0  0  0  0  0  0  0
   -0.2446   -0.0801    0.0284 C   0  0  2  0  0  0  0  0  0  0  0  0
   -1.4973    0.6680    0.0427 O   0  0  0  0  0  0  0  0  0  0  0  0
   -2.2900    0.5468   -1.0562 C   0  0  0  0  0  0  0  0  0  0  0  0
   -2.0431   -0.1653   -2.0219 O   0  0  0  0  0  0  0  0  0  0  0  0
   -3.5277    1.3980   -0.9162 C   0  0  0  0  0  0  0  0  0  0  0  0
   -4.8065    0.5527   -0.9538 C   0  0  0  0  0  0  0  0  0  0  0  0
   -6.0296    1.4584   -1.1021 C   0  0  0  0  0  0  0  0  0  0  0  0
   -4.9447   -0.3080    0.3039 C   0  0  0  0  0  0  0  0  0  0  0  0
   -0.5030   -1.5363    0.5433 C   0  0  0  0  0  0  0  0  0  0  0  0
   -1.0144   -1.5772    1.9863 C   0  0  0  0  0  0  0  0  0  0  0  0
    0.7180   -2.4452    0.3910 C   0  0  0  0  0  0  0  0  0  0  0  0
   -1.5374   -2.1643   -0.2434 O   0  0  0  0  0  0  0  0  0  0  0  0
    2.8141    0.8570   -0.6129 C   0  0  0  0  0  0  0  0  0  0  0  0
    4.1673    0.6372   -0.8687 C   0  0  0  0  0  0  0  0  0  0  0  0
    4.7197    1.0002   -2.1639 C   0  0  0  0  0  0  0  0  0  0  0  0
    3.9328    1.5640   -3.0848 C   0  0  0  0  0  0  0  0  0  0  0  0
    2.5079    1.8393   -2.8405 C   0  0  0  0  0  0  0  0  0  0  0  0
    1.8169    2.3804   -3.6950 O   0  0  0  0  0  0  0  0  0  0  0  0
    2.0029    1.4565   -1.6059 O   0  0  0  0  0  0  0  0  0  0  0  0
    4.9571    0.0777    0.1316 C   0  0  0  0  0  0  0  0  0  0  0  0
    4.3951   -0.2443    1.3719 C   0  0  0  0  0  0  0  0  0  0  0  0
    3.6013   -1.8545    3.5462 H   0  0  0  0  0  0  0  0  0  0  0  0
    3.9942   -0.2016    4.1646 H   0  0  0  0  0  0  0  0  0  0  0  0
    2.5416   -1.0490    4.7088 H   0  0  0  0  0  0  0  0  0  0  0  0
    0.5694    1.8418    0.5944 H   0  0  0  0  0  0  0  0  0  0  0  0
    0.4827    0.7473    1.9083 H   0  0  0  0  0  0  0  0  0  0  0  0
    0.1034   -0.1350   -1.0102 H   0  0  0  0  0  0  0  0  0  0  0  0
   -3.5083    2.1208   -1.7407 H   0  0  0  0  0  0  0  0  0  0  0  0
   -3.4779    1.9809    0.0116 H   0  0  0  0  0  0  0  0  0  0  0  0
   -4.7735   -0.1179   -1.8219 H   0  0  0  0  0  0  0  0  0  0  0  0
   -5.9658    2.0507   -2.0211 H   0  0  0  0  0  0  0  0  0  0  0  0
   -6.9493    0.8657   -1.1511 H   0  0  0  0  0  0  0  0  0  0  0  0
   -6.1170    2.1507   -0.2576 H   0  0  0  0  0  0  0  0  0  0  0  0
   -4.9685    0.3096    1.2082 H   0  0  0  0  0  0  0  0  0  0  0  0
   -5.8688   -0.8952    0.2718 H   0  0  0  0  0  0  0  0  0  0  0  0
   -4.1115   -1.0113    0.3961 H   0  0  0  0  0  0  0  0  0  0  0  0
   -0.2646   -1.2314    2.7028 H   0  0  0  0  0  0  0  0  0  0  0  0
   -1.9161   -0.9660    2.1027 H   0  0  0  0  0  0  0  0  0  0  0  0
   -1.3006   -2.5980    2.2670 H   0  0  0  0  0  0  0  0  0  0  0  0
    1.5026   -2.2205    1.1136 H   0  0  0  0  0  0  0  0  0  0  0  0
    1.1358   -2.3711   -0.6193 H   0  0  0  0  0  0  0  0  0  0  0  0
    0.4383   -3.4967    0.5296 H   0  0  0  0  0  0  0  0  0  0  0  0
   -1.4888   -1.8154   -1.1576 H   0  0  0  0  0  0  0  0  0  0  0  0
    5.7681    0.8097   -2.3655 H   0  0  0  0  0  0  0  0  0  0  0  0
    4.3076    1.8514   -4.0596 H   0  0  0  0  0  0  0  0  0  0  0  0
    6.0161   -0.1071   -0.0333 H   0  0  0  0  0  0  0  0  0  0  0  0
    5.0521   -0.6696    2.1243 H   0  0  0  0  0  0  0  0  0  0  0  0
  1  2  1  0
  2  3  1  0
  3  4  2  0
  4  5  1  0
  5  6  1  0
  6  7  1  0
  7  8  1  0
  8  9  2  0
  8 10  1  0
 10 11  1  0
 11 12  1  0
 11 13  1  0
  6 14  1  0
 14 15  1  0
 14 16  1  0
 14 17  1  0
  4 18  1  0
 18 19  2  0
 19 20  1  0
 20 21  2  0
 21 22  1  0
 22 23  2  0
 22 24  1  0
 19 25  1  0
 25 26  2  0
 26  3  1  0
 24 18  1  0
  1 27  1  0
  1 28  1  0
  1 29  1  0
  5 30  1  0
  5 31  1  0
  6 32  1  6
 10 33  1  0
 10 34  1  0
 11 35  1  0
 12 36  1  0
 12 37  1  0
 12 38  1  0
 13 39  1  0
 13 40  1  0
 13 41  1  0
 15 42  1  0
 15 43  1  0
 15 44  1  0
 16 45  1  0
 16 46  1  0
 16 47  1  0
 17 48  1  0
 20 49  1  0
 21 50  1  0
 25 51  1  0
 26 52  1  0
M  END
>  <Name>  (230) 
Murrayatin

>  <PubChem ID>  (230) 
621354

>  <CDB ID>  (230) 
CDB0230

>  <Smiles>  (230) 
COC1=C(C[C@H](OC(=O)CC(C)C)C(C)(C)O)C2=C(C=CC(=O)O2)C=C1

>  <Chemical class>  (230) 
7-Oxygenated Coumarins

>  <Natural source>  (230) 
Murraya exotica

>  <Molecular Formula>  (230) 
C20H26O6

>  <InChI-Key>  (230) 
XAKVHDMPRFGESG-INIZCTEOSA-N

>  <Total Molweight>  (230) 
362.42

>  <cLogP>  (230) 
3.0444

>  <cLogS>  (230) 
-3.852

>  <H-Acceptors>  (230) 
6

>  <H-Donors>  (230) 
1

>  <Rotatable Bonds>  (230) 
8

>  <Polar Surface Area>  (230) 
82.06

$$$$
CDB0231
     RDKit          3D

 45 47  0  0  0  0  0  0  0  0999 V2000
   -2.1810   -3.6075    0.7865 C   0  0  0  0  0  0  0  0  0  0  0  0
   -1.5623   -2.5099    0.1274 O   0  0  0  0  0  0  0  0  0  0  0  0
   -2.1837   -1.2897    0.2076 C   0  0  0  0  0  0  0  0  0  0  0  0
   -1.5263   -0.2256   -0.4411 C   0  0  0  0  0  0  0  0  0  0  0  0
   -0.2062   -0.4517   -1.1536 C   0  0  0  0  0  0  0  0  0  0  0  0
    0.9698   -0.4696   -0.1742 C   0  0  2  0  0  0  0  0  0  0  0  0
    1.3040    0.8607    0.2539 O   0  0  0  0  0  0  0  0  0  0  0  0
    2.6555    0.7586    0.7188 C   0  0  0  0  0  0  0  0  0  0  0  0
    2.6606    0.6073    2.2380 C   0  0  0  0  0  0  0  0  0  0  0  0
    3.4212    2.0078    0.3029 C   0  0  0  0  0  0  0  0  0  0  0  0
    3.2749   -0.4037    0.1452 O   0  0  0  0  0  0  0  0  0  0  0  0
    2.2959   -0.9792   -0.7410 C   0  0  0  0  0  0  0  0  0  0  0  0
    2.6080   -0.5027   -2.1638 C   0  0  0  0  0  0  0  0  0  0  0  0
    2.4086   -2.4996   -0.6646 C   0  0  0  0  0  0  0  0  0  0  0  0
   -2.1028    1.0539   -0.3771 C   0  0  0  0  0  0  0  0  0  0  0  0
   -3.2997    1.2932    0.2979 C   0  0  0  0  0  0  0  0  0  0  0  0
   -3.8422    2.6418    0.3361 C   0  0  0  0  0  0  0  0  0  0  0  0
   -3.1893    3.6345   -0.2746 C   0  0  0  0  0  0  0  0  0  0  0  0
   -1.9276    3.4180   -1.0018 C   0  0  0  0  0  0  0  0  0  0  0  0
   -1.3625    4.3496   -1.5629 O   0  0  0  0  0  0  0  0  0  0  0  0
   -1.4362    2.1219   -1.0224 O   0  0  0  0  0  0  0  0  0  0  0  0
   -3.9437    0.2292    0.9259 C   0  0  0  0  0  0  0  0  0  0  0  0
   -3.3889   -1.0549    0.8808 C   0  0  0  0  0  0  0  0  0  0  0  0
   -1.5524   -4.4890    0.6277 H   0  0  0  0  0  0  0  0  0  0  0  0
   -2.2447   -3.4349    1.8659 H   0  0  0  0  0  0  0  0  0  0  0  0
   -3.1661   -3.8201    0.3587 H   0  0  0  0  0  0  0  0  0  0  0  0
   -0.2655   -1.3992   -1.7029 H   0  0  0  0  0  0  0  0  0  0  0  0
   -0.0625    0.3244   -1.9143 H   0  0  0  0  0  0  0  0  0  0  0  0
    0.7083   -1.0342    0.7307 H   0  0  0  0  0  0  0  0  0  0  0  0
    2.1565    1.4503    2.7221 H   0  0  0  0  0  0  0  0  0  0  0  0
    2.1323   -0.3032    2.5421 H   0  0  0  0  0  0  0  0  0  0  0  0
    3.6821    0.5276    2.6248 H   0  0  0  0  0  0  0  0  0  0  0  0
    3.4127    2.1275   -0.7854 H   0  0  0  0  0  0  0  0  0  0  0  0
    4.4702    1.9522    0.6120 H   0  0  0  0  0  0  0  0  0  0  0  0
    2.9680    2.9102    0.7268 H   0  0  0  0  0  0  0  0  0  0  0  0
    3.6493   -0.7248   -2.4242 H   0  0  0  0  0  0  0  0  0  0  0  0
    1.9605   -0.9837   -2.9040 H   0  0  0  0  0  0  0  0  0  0  0  0
    2.4902    0.5810   -2.2630 H   0  0  0  0  0  0  0  0  0  0  0  0
    1.6636   -2.9935   -1.2962 H   0  0  0  0  0  0  0  0  0  0  0  0
    3.4052   -2.8320   -0.9766 H   0  0  0  0  0  0  0  0  0  0  0  0
    2.2781   -2.8503    0.3656 H   0  0  0  0  0  0  0  0  0  0  0  0
   -4.7708    2.8252    0.8651 H   0  0  0  0  0  0  0  0  0  0  0  0
   -3.5589    4.6524   -0.2672 H   0  0  0  0  0  0  0  0  0  0  0  0
   -4.8783    0.3829    1.4600 H   0  0  0  0  0  0  0  0  0  0  0  0
   -3.9240   -1.8513    1.3883 H   0  0  0  0  0  0  0  0  0  0  0  0
  1  2  1  0
  2  3  1  0
  3  4  2  0
  4  5  1  0
  5  6  1  0
  6  7  1  0
  7  8  1  0
  8  9  1  0
  8 10  1  0
  8 11  1  0
 11 12  1  0
 12 13  1  0
 12 14  1  0
  4 15  1  0
 15 16  2  0
 16 17  1  0
 17 18  2  0
 18 19  1  0
 19 20  2  0
 19 21  1  0
 16 22  1  0
 22 23  2  0
 23  3  1  0
 12  6  1  0
 21 15  1  0
  1 24  1  0
  1 25  1  0
  1 26  1  0
  5 27  1  0
  5 28  1  0
  6 29  1  1
  9 30  1  0
  9 31  1  0
  9 32  1  0
 10 33  1  0
 10 34  1  0
 10 35  1  0
 13 36  1  0
 13 37  1  0
 13 38  1  0
 14 39  1  0
 14 40  1  0
 14 41  1  0
 17 42  1  0
 18 43  1  0
 22 44  1  0
 23 45  1  0
M  END
>  <Name>  (231) 
Pranferin

>  <PubChem ID>  (231) 
274875866

>  <CDB ID>  (231) 
CDB0231

>  <Smiles>  (231) 
COC1=C(C[C@@H]2OC(C)(C)OC2(C)C)C2=C(C=CC(=O)O2)C=C1

>  <Chemical class>  (231) 
7-Oxygenated Coumarins

>  <Natural source>  (231) 
Prangos ferulacea

>  <Molecular Formula>  (231) 
C18H22O5

>  <InChI-Key>  (231) 
LVWSCHXVZZOBOU-AWEZNQCLSA-N

>  <Total Molweight>  (231) 
318.368

>  <cLogP>  (231) 
2.6297

>  <cLogS>  (231) 
-3.712

>  <H-Acceptors>  (231) 
5

>  <H-Donors>  (231) 
0

>  <Rotatable Bonds>  (231) 
3

>  <Polar Surface Area>  (231) 
53.99

$$$$
CDB0232
     RDKit          3D

 44 45  0  0  0  0  0  0  0  0999 V2000
    4.9653   -0.1133   -1.8012 C   0  0  0  0  0  0  0  0  0  0  0  0
    4.2738    0.1811   -0.4826 C   0  0  0  0  0  0  0  0  0  0  0  0
    2.9037   -0.1830   -0.6183 O   0  0  0  0  0  0  0  0  0  0  0  0
    2.0617   -0.0754    0.5606 C   0  0  0  0  0  0  0  0  0  0  0  0
    2.5040   -1.1034    1.6134 C   0  0  0  0  0  0  0  0  0  0  0  0
    2.0986    1.3467    1.1394 C   0  0  0  0  0  0  0  0  0  0  0  0
    0.6304   -0.4037    0.0176 C   0  0  1  0  0  0  0  0  0  0  0  0
    0.7049   -1.6359   -0.7303 O   0  0  0  0  0  0  0  0  0  0  0  0
   -0.4657   -0.5441    1.0898 C   0  0  0  0  0  0  0  0  0  0  0  0
   -1.8560   -0.3281    0.5268 C   0  0  0  0  0  0  0  0  0  0  0  0
   -2.7242   -1.3956    0.2663 C   0  0  0  0  0  0  0  0  0  0  0  0
   -2.3350   -2.6710    0.5816 O   0  0  0  0  0  0  0  0  0  0  0  0
   -2.1389   -3.4512   -0.5986 C   0  0  0  0  0  0  0  0  0  0  0  0
   -4.0106   -1.1726   -0.2386 C   0  0  0  0  0  0  0  0  0  0  0  0
   -4.4395    0.1249   -0.5269 C   0  0  0  0  0  0  0  0  0  0  0  0
   -3.5876    1.2049   -0.2967 C   0  0  0  0  0  0  0  0  0  0  0  0
   -2.3150    0.9652    0.2278 C   0  0  0  0  0  0  0  0  0  0  0  0
   -1.4400    2.0495    0.4767 O   0  0  0  0  0  0  0  0  0  0  0  0
   -1.8010    3.3612    0.2078 C   0  0  0  0  0  0  0  0  0  0  0  0
   -1.0456    4.3036    0.4146 O   0  0  0  0  0  0  0  0  0  0  0  0
   -3.1482    3.5784   -0.3437 C   0  0  0  0  0  0  0  0  0  0  0  0
   -3.9938    2.5719   -0.5830 C   0  0  0  0  0  0  0  0  0  0  0  0
    6.0248    0.1535   -1.7543 H   0  0  0  0  0  0  0  0  0  0  0  0
    4.4954    0.4467   -2.6166 H   0  0  0  0  0  0  0  0  0  0  0  0
    4.8788   -1.1756   -2.0527 H   0  0  0  0  0  0  0  0  0  0  0  0
    4.3633    1.2493   -0.2658 H   0  0  0  0  0  0  0  0  0  0  0  0
    4.7560   -0.3957    0.3107 H   0  0  0  0  0  0  0  0  0  0  0  0
    2.5753   -2.1065    1.1791 H   0  0  0  0  0  0  0  0  0  0  0  0
    1.8177   -1.1375    2.4650 H   0  0  0  0  0  0  0  0  0  0  0  0
    3.4943   -0.8657    2.0153 H   0  0  0  0  0  0  0  0  0  0  0  0
    1.8705    2.0867    0.3641 H   0  0  0  0  0  0  0  0  0  0  0  0
    1.3940    1.4795    1.9647 H   0  0  0  0  0  0  0  0  0  0  0  0
    3.0914    1.5942    1.5302 H   0  0  0  0  0  0  0  0  0  0  0  0
    0.3620    0.3646   -0.7185 H   0  0  0  0  0  0  0  0  0  0  0  0
    1.5339   -1.5500   -1.2446 H   0  0  0  0  0  0  0  0  0  0  0  0
   -0.4047   -1.5327    1.5600 H   0  0  0  0  0  0  0  0  0  0  0  0
   -0.3311    0.1778    1.9020 H   0  0  0  0  0  0  0  0  0  0  0  0
   -1.5081   -4.3052   -0.3344 H   0  0  0  0  0  0  0  0  0  0  0  0
   -3.0971   -3.8370   -0.9612 H   0  0  0  0  0  0  0  0  0  0  0  0
   -1.6346   -2.8880   -1.3919 H   0  0  0  0  0  0  0  0  0  0  0  0
   -4.6856   -2.0095   -0.3967 H   0  0  0  0  0  0  0  0  0  0  0  0
   -5.4406    0.2768   -0.9222 H   0  0  0  0  0  0  0  0  0  0  0  0
   -3.4146    4.6087   -0.5449 H   0  0  0  0  0  0  0  0  0  0  0  0
   -4.9823    2.7555   -0.9895 H   0  0  0  0  0  0  0  0  0  0  0  0
  1  2  1  0
  2  3  1  0
  3  4  1  0
  4  5  1  0
  4  6  1  0
  4  7  1  0
  7  8  1  0
  7  9  1  0
  9 10  1  0
 10 11  2  0
 11 12  1  0
 12 13  1  0
 11 14  1  0
 14 15  2  0
 15 16  1  0
 16 17  2  0
 17 18  1  0
 18 19  1  0
 19 20  2  0
 19 21  1  0
 21 22  2  0
 17 10  1  0
 22 16  1  0
  1 23  1  0
  1 24  1  0
  1 25  1  0
  2 26  1  0
  2 27  1  0
  5 28  1  0
  5 29  1  0
  5 30  1  0
  6 31  1  0
  6 32  1  0
  6 33  1  0
  7 34  1  6
  8 35  1  0
  9 36  1  0
  9 37  1  0
 13 38  1  0
 13 39  1  0
 13 40  1  0
 14 41  1  0
 15 42  1  0
 21 43  1  0
 22 44  1  0
M  END
>  <Name>  (232) 
Yuehgesin-C

>  <PubChem ID>  (232) 
5319451

>  <CDB ID>  (232) 
CDB0232

>  <Smiles>  (232) 
CCOC(C)(C)[C@@H](O)CC1=C(OC)C=CC2=C1OC(=O)C=C2

>  <Chemical class>  (232) 
7-Oxygenated Coumarins

>  <Natural source>  (232) 
Murraya paniculata

>  <Molecular Formula>  (232) 
C17H22O5

>  <InChI-Key>  (232) 
ZEJUDJOXRYEYKX-AWEZNQCLSA-N

>  <Total Molweight>  (232) 
306.357

>  <cLogP>  (232) 
2.2669

>  <cLogS>  (232) 
-3.17

>  <H-Acceptors>  (232) 
5

>  <H-Donors>  (232) 
1

>  <Rotatable Bonds>  (232) 
6

>  <Polar Surface Area>  (232) 
64.99

$$$$
CDB0233
     RDKit          3D

 46 47  0  0  0  0  0  0  0  0999 V2000
    1.1860    1.7910   -2.6377 C   0  0  0  0  0  0  0  0  0  0  0  0
    1.7312    1.4061   -1.2881 C   0  0  0  0  0  0  0  0  0  0  0  0
    2.7244    2.3839   -0.7193 C   0  0  0  0  0  0  0  0  0  0  0  0
    1.3097    0.2792   -0.6811 C   0  0  0  0  0  0  0  0  0  0  0  0
    1.7976   -0.2416    0.6314 C   0  0  0  0  0  0  0  0  0  0  0  0
    2.9319    0.0337    1.0271 O   0  0  0  0  0  0  0  0  0  0  0  0
    0.9219   -1.1983    1.4453 C   0  0  1  0  0  0  0  0  0  0  0  0
   -0.4528   -0.6343    1.8952 C   0  0  0  0  0  0  0  0  0  0  0  0
   -1.5010   -0.2047    0.8946 C   0  0  0  0  0  0  0  0  0  0  0  0
   -2.4687   -1.0947    0.4155 C   0  0  0  0  0  0  0  0  0  0  0  0
   -2.4763   -2.3727    0.8920 O   0  0  0  0  0  0  0  0  0  0  0  0
   -3.4350   -0.7003   -0.5131 C   0  0  0  0  0  0  0  0  0  0  0  0
   -3.4699    0.6194   -0.9658 C   0  0  0  0  0  0  0  0  0  0  0  0
   -2.5528    1.5467   -0.4734 C   0  0  0  0  0  0  0  0  0  0  0  0
   -1.5945    1.1279    0.4547 C   0  0  0  0  0  0  0  0  0  0  0  0
   -0.6838    2.0718    0.9896 O   0  0  0  0  0  0  0  0  0  0  0  0
   -0.6906    3.4061    0.6095 C   0  0  0  0  0  0  0  0  0  0  0  0
    0.0946    4.2278    1.0668 O   0  0  0  0  0  0  0  0  0  0  0  0
   -1.6981    3.8027   -0.3869 C   0  0  0  0  0  0  0  0  0  0  0  0
   -2.5765    2.9368   -0.8999 C   0  0  0  0  0  0  0  0  0  0  0  0
    1.0169   -2.6756    0.9602 C   0  0  0  0  0  0  0  0  0  0  0  0
    2.4576   -3.2066    1.0997 C   0  0  0  0  0  0  0  0  0  0  0  0
    0.5627   -2.9372   -0.4769 C   0  0  0  0  0  0  0  0  0  0  0  0
    0.2077   -3.5090    1.8037 O   0  0  0  0  0  0  0  0  0  0  0  0
    0.6697    2.7547   -2.5797 H   0  0  0  0  0  0  0  0  0  0  0  0
    2.0009    1.8752   -3.3641 H   0  0  0  0  0  0  0  0  0  0  0  0
    0.4719    1.0555   -3.0233 H   0  0  0  0  0  0  0  0  0  0  0  0
    3.7117    2.2206   -1.1620 H   0  0  0  0  0  0  0  0  0  0  0  0
    2.8083    2.3279    0.3685 H   0  0  0  0  0  0  0  0  0  0  0  0
    2.4154    3.4109   -0.9441 H   0  0  0  0  0  0  0  0  0  0  0  0
    0.5451   -0.3217   -1.1589 H   0  0  0  0  0  0  0  0  0  0  0  0
    1.4425   -1.2236    2.4200 H   0  0  0  0  0  0  0  0  0  0  0  0
   -0.2466    0.2334    2.5389 H   0  0  0  0  0  0  0  0  0  0  0  0
   -0.9154   -1.3453    2.5930 H   0  0  0  0  0  0  0  0  0  0  0  0
   -3.1657   -2.8927    0.4495 H   0  0  0  0  0  0  0  0  0  0  0  0
   -4.1749   -1.4047   -0.8828 H   0  0  0  0  0  0  0  0  0  0  0  0
   -4.2295    0.9145   -1.6856 H   0  0  0  0  0  0  0  0  0  0  0  0
   -1.6863    4.8460   -0.6777 H   0  0  0  0  0  0  0  0  0  0  0  0
   -3.3125    3.2549   -1.6302 H   0  0  0  0  0  0  0  0  0  0  0  0
    3.1538   -2.6911    0.4309 H   0  0  0  0  0  0  0  0  0  0  0  0
    2.8192   -3.0979    2.1287 H   0  0  0  0  0  0  0  0  0  0  0  0
    2.4992   -4.2791    0.8750 H   0  0  0  0  0  0  0  0  0  0  0  0
    1.2603   -2.5234   -1.2111 H   0  0  0  0  0  0  0  0  0  0  0  0
    0.4887   -4.0152   -0.6667 H   0  0  0  0  0  0  0  0  0  0  0  0
   -0.4283   -2.5314   -0.6789 H   0  0  0  0  0  0  0  0  0  0  0  0
    0.5304   -3.4255    2.7175 H   0  0  0  0  0  0  0  0  0  0  0  0
  1  2  1  0
  2  3  1  0
  2  4  2  3
  4  5  1  0
  5  6  2  0
  5  7  1  0
  7  8  1  0
  8  9  1  0
  9 10  2  0
 10 11  1  0
 10 12  1  0
 12 13  2  0
 13 14  1  0
 14 15  2  0
 15 16  1  0
 16 17  1  0
 17 18  2  0
 17 19  1  0
 19 20  2  0
  7 21  1  0
 21 22  1  0
 21 23  1  0
 21 24  1  0
 15  9  1  0
 20 14  1  0
  1 25  1  0
  1 26  1  0
  1 27  1  0
  3 28  1  0
  3 29  1  0
  3 30  1  0
  4 31  1  0
  7 32  1  1
  8 33  1  0
  8 34  1  0
 11 35  1  0
 12 36  1  0
 13 37  1  0
 19 38  1  0
 20 39  1  0
 22 40  1  0
 22 41  1  0
 22 42  1  0
 23 43  1  0
 23 44  1  0
 23 45  1  0
 24 46  1  0
M  END
>  <Name>  (233) 
Ferudiol

>  <PubChem ID>  (233) 
101311668

>  <CDB ID>  (233) 
CDB0233

>  <Smiles>  (233) 
CC(C)=CC(=O)[C@@H](CC1=C(O)C=CC2=C1OC(=O)C=C2)C(C)(C)O

>  <Chemical class>  (233) 
7-Oxygenated Coumarins

>  <Natural source>  (233) 
Prangos ferulacea

>  <Molecular Formula>  (233) 
C19H22O5

>  <InChI-Key>  (233) 
KVUCPAUFSGZYHK-CQSZACIVSA-N

>  <Total Molweight>  (233) 
330.379

>  <cLogP>  (233) 
3.0615

>  <cLogS>  (233) 
-3.345

>  <H-Acceptors>  (233) 
5

>  <H-Donors>  (233) 
2

>  <Rotatable Bonds>  (233) 
5

>  <Polar Surface Area>  (233) 
83.83

$$$$
CDB0234
     RDKit          3D

 36 37  0  0  0  0  0  0  0  0999 V2000
    0.7225    3.8006   -0.7963 C   0  0  0  0  0  0  0  0  0  0  0  0
    0.3728    2.4229   -0.8031 O   0  0  0  0  0  0  0  0  0  0  0  0
    1.3006    1.5242   -0.3366 C   0  0  0  0  0  0  0  0  0  0  0  0
    0.9066    0.1692   -0.3074 C   0  0  0  0  0  0  0  0  0  0  0  0
   -0.4332   -0.2731   -0.7375 C   0  0  0  0  0  0  0  0  0  0  0  0
   -1.5582    0.1462   -0.1346 C   0  0  0  0  0  0  0  0  0  0  0  0
   -2.9778   -0.2292   -0.4837 C   0  0  1  0  0  0  0  0  0  0  0  0
   -3.6559   -0.8827    0.7244 C   0  0  0  0  0  0  0  0  0  0  0  0
   -3.6787    1.0026   -0.7397 O   0  0  0  0  0  0  0  0  0  0  0  0
   -3.1537   -1.1059   -1.7474 C   0  0  0  0  0  0  0  0  0  0  0  0
   -4.5381   -1.2418   -2.0845 O   0  0  0  0  0  0  0  0  0  0  0  0
    1.8388   -0.7916    0.1226 C   0  0  0  0  0  0  0  0  0  0  0  0
    3.1233   -0.4423    0.5391 C   0  0  0  0  0  0  0  0  0  0  0  0
    4.0395   -1.4810    0.9823 C   0  0  0  0  0  0  0  0  0  0  0  0
    3.6424   -2.7567    0.9842 C   0  0  0  0  0  0  0  0  0  0  0  0
    2.2967   -3.1641    0.5487 C   0  0  0  0  0  0  0  0  0  0  0  0
    1.9653   -4.3435    0.5575 O   0  0  0  0  0  0  0  0  0  0  0  0
    1.4441   -2.1528    0.1330 O   0  0  0  0  0  0  0  0  0  0  0  0
    3.4955    0.9001    0.5195 C   0  0  0  0  0  0  0  0  0  0  0  0
    2.5919    1.8760    0.0819 C   0  0  0  0  0  0  0  0  0  0  0  0
    0.9350    4.1500    0.2194 H   0  0  0  0  0  0  0  0  0  0  0  0
   -0.1381    4.3650   -1.1682 H   0  0  0  0  0  0  0  0  0  0  0  0
    1.5639    3.9967   -1.4687 H   0  0  0  0  0  0  0  0  0  0  0  0
   -0.4425   -0.9863   -1.5566 H   0  0  0  0  0  0  0  0  0  0  0  0
   -1.4699    0.8433    0.6997 H   0  0  0  0  0  0  0  0  0  0  0  0
   -3.5956   -0.2368    1.6089 H   0  0  0  0  0  0  0  0  0  0  0  0
   -4.7246   -1.0443    0.5434 H   0  0  0  0  0  0  0  0  0  0  0  0
   -3.1964   -1.8460    0.9709 H   0  0  0  0  0  0  0  0  0  0  0  0
   -3.0836    1.5557   -1.2779 H   0  0  0  0  0  0  0  0  0  0  0  0
   -2.6725   -0.6387   -2.6137 H   0  0  0  0  0  0  0  0  0  0  0  0
   -2.7333   -2.1075   -1.6109 H   0  0  0  0  0  0  0  0  0  0  0  0
   -4.9412   -0.3761   -1.8727 H   0  0  0  0  0  0  0  0  0  0  0  0
    5.0368   -1.2057    1.3077 H   0  0  0  0  0  0  0  0  0  0  0  0
    4.2951   -3.5586    1.3073 H   0  0  0  0  0  0  0  0  0  0  0  0
    4.4900    1.2057    0.8372 H   0  0  0  0  0  0  0  0  0  0  0  0
    2.9327    2.9067    0.0747 H   0  0  0  0  0  0  0  0  0  0  0  0
  1  2  1  0
  2  3  1  0
  3  4  2  0
  4  5  1  0
  5  6  2  3
  6  7  1  0
  7  8  1  0
  7  9  1  6
  7 10  1  0
 10 11  1  0
  4 12  1  0
 12 13  2  0
 13 14  1  0
 14 15  2  0
 15 16  1  0
 16 17  2  0
 16 18  1  0
 13 19  1  0
 19 20  2  0
 20  3  1  0
 18 12  1  0
  1 21  1  0
  1 22  1  0
  1 23  1  0
  5 24  1  0
  6 25  1  0
  8 26  1  0
  8 27  1  0
  8 28  1  0
  9 29  1  0
 10 30  1  0
 10 31  1  0
 11 32  1  0
 14 33  1  0
 15 34  1  0
 19 35  1  0
 20 36  1  0
M  END
>  <Name>  (234) 
Casegravol

>  <PubChem ID>  (234) 
6440521

>  <CDB ID>  (234) 
CDB0234

>  <Smiles>  (234) 
COC1=C(C=C[C@@](C)(O)CO)C2=C(C=CC(=O)O2)C=C1

>  <Chemical class>  (234) 
7-Oxygenated Coumarins

>  <Natural source>  (234) 
Casearia graveolens

>  <Molecular Formula>  (234) 
C15H16O5

>  <InChI-Key>  (234) 
XVVRFNCLKCYMPH-OAHLLOKOSA-N

>  <Total Molweight>  (234) 
276.287

>  <cLogP>  (234) 
1.4045

>  <cLogS>  (234) 
-2.769

>  <H-Acceptors>  (234) 
5

>  <H-Donors>  (234) 
2

>  <Rotatable Bonds>  (234) 
4

>  <Polar Surface Area>  (234) 
75.99

$$$$
CDB0235
     RDKit          3D

 61 66  0  0  0  0  0  0  0  0999 V2000
   -6.4427    2.4861   -3.0754 C   0  0  0  0  0  0  0  0  0  0  0  0
   -7.1258    1.6112   -2.1872 O   0  0  0  0  0  0  0  0  0  0  0  0
   -6.3704    0.7089   -1.4890 C   0  0  0  0  0  0  0  0  0  0  0  0
   -7.0979   -0.1128   -0.6308 C   0  0  0  0  0  0  0  0  0  0  0  0
   -6.4424   -1.0542    0.1514 C   0  0  0  0  0  0  0  0  0  0  0  0
   -7.2243   -1.8130    0.9817 O   0  0  0  0  0  0  0  0  0  0  0  0
   -5.0494   -1.1896    0.0753 C   0  0  0  0  0  0  0  0  0  0  0  0
   -4.3444   -2.1568    0.9383 C   0  0  0  0  0  0  0  0  0  0  0  0
   -4.9916   -2.9413    1.6299 O   0  0  0  0  0  0  0  0  0  0  0  0
   -2.8674   -2.1336    0.9925 C   0  0  0  0  0  0  0  0  0  0  0  0
   -2.1548   -1.3176    0.0882 C   0  0  0  0  0  0  0  0  0  0  0  0
   -0.7472   -1.2777    0.2480 C   0  0  0  0  0  0  0  0  0  0  0  0
   -0.1081   -2.0396    1.2445 C   0  0  0  0  0  0  0  0  0  0  0  0
   -0.8431   -2.8737    2.0807 C   0  0  0  0  0  0  0  0  0  0  0  0
   -2.2254   -2.9179    1.9618 C   0  0  0  0  0  0  0  0  0  0  0  0
    1.2396   -2.0096    1.4982 O   0  0  0  0  0  0  0  0  0  0  0  0
    1.9917   -1.0293    0.7479 C   0  0  2  0  0  0  0  0  0  0  0  0
    3.3698   -1.6775    0.5567 C   0  0  0  0  0  0  0  0  0  0  0  0
    1.9875    0.2609    1.5630 C   0  0  0  0  0  0  0  0  0  0  0  0
    2.9421    1.1571    1.8655 C   0  0  0  0  0  0  0  0  0  0  0  0
    4.3474    1.1630    1.4470 C   0  0  0  0  0  0  0  0  0  0  0  0
    5.3652    0.7144    2.2988 C   0  0  0  0  0  0  0  0  0  0  0  0
    5.1182    0.2015    3.5432 O   0  0  0  0  0  0  0  0  0  0  0  0
    6.7038    0.7613    1.9082 C   0  0  0  0  0  0  0  0  0  0  0  0
    7.0519    1.2569    0.6496 C   0  0  0  0  0  0  0  0  0  0  0  0
    6.0582    1.7066   -0.2212 C   0  0  0  0  0  0  0  0  0  0  0  0
    4.7224    1.6567    0.1871 C   0  0  0  0  0  0  0  0  0  0  0  0
    3.7027    2.1028   -0.6879 O   0  0  0  0  0  0  0  0  0  0  0  0
    3.9808    2.5731   -1.9622 C   0  0  0  0  0  0  0  0  0  0  0  0
    3.1003    2.9183   -2.7411 O   0  0  0  0  0  0  0  0  0  0  0  0
    5.3990    2.6324   -2.3511 C   0  0  0  0  0  0  0  0  0  0  0  0
    6.3807    2.2270   -1.5404 C   0  0  0  0  0  0  0  0  0  0  0  0
    1.3550   -0.8251   -0.6364 C   0  0  0  0  0  0  0  0  0  0  0  0
   -0.0130   -0.4199   -0.5375 O   0  0  0  0  0  0  0  0  0  0  0  0
   -2.8903   -0.5946   -0.8864 N   0  0  0  0  0  0  0  0  0  0  0  0
   -2.1930   -0.1105   -2.0826 C   0  0  0  0  0  0  0  0  0  0  0  0
   -4.2907   -0.4053   -0.8103 C   0  0  0  0  0  0  0  0  0  0  0  0
   -4.9791    0.5630   -1.5703 C   0  0  0  0  0  0  0  0  0  0  0  0
   -5.9344    1.9264   -3.8675 H   0  0  0  0  0  0  0  0  0  0  0  0
   -5.7426    3.1303   -2.5334 H   0  0  0  0  0  0  0  0  0  0  0  0
   -7.1889    3.1307   -3.5497 H   0  0  0  0  0  0  0  0  0  0  0  0
   -8.1778   -0.0108   -0.5619 H   0  0  0  0  0  0  0  0  0  0  0  0
   -6.6343   -2.4514    1.4441 H   0  0  0  0  0  0  0  0  0  0  0  0
   -0.3424   -3.4640    2.8437 H   0  0  0  0  0  0  0  0  0  0  0  0
   -2.8045   -3.5470    2.6347 H   0  0  0  0  0  0  0  0  0  0  0  0
    4.0145   -1.1059   -0.1158 H   0  0  0  0  0  0  0  0  0  0  0  0
    3.2634   -2.6822    0.1282 H   0  0  0  0  0  0  0  0  0  0  0  0
    3.8793   -1.8186    1.5164 H   0  0  0  0  0  0  0  0  0  0  0  0
    0.9975    0.5041    1.9565 H   0  0  0  0  0  0  0  0  0  0  0  0
    2.6679    2.0232    2.4688 H   0  0  0  0  0  0  0  0  0  0  0  0
    4.1563    0.1111    3.6592 H   0  0  0  0  0  0  0  0  0  0  0  0
    7.4761    0.4082    2.5875 H   0  0  0  0  0  0  0  0  0  0  0  0
    8.1008    1.2843    0.3641 H   0  0  0  0  0  0  0  0  0  0  0  0
    5.6004    3.0234   -3.3410 H   0  0  0  0  0  0  0  0  0  0  0  0
    7.4191    2.2791   -1.8497 H   0  0  0  0  0  0  0  0  0  0  0  0
    1.8866   -0.0520   -1.2025 H   0  0  0  0  0  0  0  0  0  0  0  0
    1.3912   -1.7457   -1.2352 H   0  0  0  0  0  0  0  0  0  0  0  0
   -1.4074   -0.8032   -2.4056 H   0  0  0  0  0  0  0  0  0  0  0  0
   -2.8528   -0.0533   -2.9563 H   0  0  0  0  0  0  0  0  0  0  0  0
   -1.7681    0.8838   -1.9092 H   0  0  0  0  0  0  0  0  0  0  0  0
   -4.4151    1.2276   -2.2138 H   0  0  0  0  0  0  0  0  0  0  0  0
  1  2  1  0
  2  3  1  0
  3  4  2  0
  4  5  1  0
  5  6  1  0
  5  7  2  0
  7  8  1  0
  8  9  2  0
  8 10  1  0
 10 11  2  0
 11 12  1  0
 12 13  2  0
 13 14  1  0
 14 15  2  0
 13 16  1  0
 16 17  1  0
 17 18  1  6
 17 19  1  0
 19 20  2  3
 20 21  1  0
 21 22  2  0
 22 23  1  0
 22 24  1  0
 24 25  2  0
 25 26  1  0
 26 27  2  0
 27 28  1  0
 28 29  1  0
 29 30  2  0
 29 31  1  0
 31 32  2  0
 17 33  1  0
 33 34  1  0
 11 35  1  0
 35 36  1  0
 35 37  1  0
 37 38  2  0
 38  3  1  0
 37  7  1  0
 15 10  1  0
 27 21  1  0
 34 12  1  0
 32 26  1  0
  1 39  1  0
  1 40  1  0
  1 41  1  0
  4 42  1  0
  6 43  1  0
 14 44  1  0
 15 45  1  0
 18 46  1  0
 18 47  1  0
 18 48  1  0
 19 49  1  0
 20 50  1  0
 23 51  1  0
 24 52  1  0
 25 53  1  0
 31 54  1  0
 32 55  1  0
 33 56  1  0
 33 57  1  0
 36 58  1  0
 36 59  1  0
 36 60  1  0
 38 61  1  0
M  END
>  <Name>  (235) 
Dioxinoacrimarine-A

>  <PubChem ID>  (235) 
131752932

>  <CDB ID>  (235) 
CDB0235

>  <Smiles>  (235) 
COC1=CC(O)=C2C(=O)C3=C(C4=C(C=C3)O[C@](C)(C=CC3=C(O)C=CC5=C3OC(=O)C=C5)CO4)N(C)C2=C1

>  <Chemical class>  (235) 
7-Oxygenated Coumarins

>  <Natural source>  (235) 
Citrus paradisi x C. tangerina

>  <Molecular Formula>  (235) 
C29H23NO8

>  <InChI-Key>  (235) 
AEXHLHGCDOTWGS-GDLZYMKVSA-N

>  <Total Molweight>  (235) 
513.501

>  <cLogP>  (235) 
4.5719

>  <cLogS>  (235) 
-7.075

>  <H-Acceptors>  (235) 
9

>  <H-Donors>  (235) 
2

>  <Rotatable Bonds>  (235) 
3

>  <Polar Surface Area>  (235) 
114.76

$$$$
CDB0236
     RDKit          3D

 48 49  0  0  0  0  0  0  0  0999 V2000
   -2.8029   -2.3604    1.3991 C   0  0  0  0  0  0  0  0  0  0  0  0
   -1.7395   -1.4076    1.3802 O   0  0  0  0  0  0  0  0  0  0  0  0
   -2.1693   -0.1219    1.1650 C   0  0  0  0  0  0  0  0  0  0  0  0
   -1.4945    0.6429    0.1957 C   0  0  0  0  0  0  0  0  0  0  0  0
   -0.3478    0.0570   -0.6157 C   0  0  1  0  0  0  0  0  0  0  0  0
    0.6938   -0.2334    0.3249 O   0  0  0  0  0  0  0  0  0  0  0  0
    1.9478    0.1340   -0.0257 C   0  0  0  0  0  0  0  0  0  0  0  0
    2.2845    0.6054   -1.0957 O   0  0  0  0  0  0  0  0  0  0  0  0
    2.8360   -0.1856    1.1182 C   0  0  0  0  0  0  0  0  0  0  0  0
    4.1247    0.1808    1.2628 C   0  0  0  0  0  0  0  0  0  0  0  0
    4.9071   -0.2707    2.4691 C   0  0  0  0  0  0  0  0  0  0  0  0
    4.9105    1.0409    0.3106 C   0  0  0  0  0  0  0  0  0  0  0  0
   -0.7997   -1.1622   -1.4580 C   0  0  0  0  0  0  0  0  0  0  0  0
   -1.9740   -1.3179   -1.8134 O   0  0  0  0  0  0  0  0  0  0  0  0
    0.2736   -2.1604   -1.8905 C   0  0  0  0  0  0  0  0  0  0  0  0
   -0.0560   -2.7454   -3.2632 C   0  0  0  0  0  0  0  0  0  0  0  0
    0.4001   -3.2674   -0.8508 C   0  0  0  0  0  0  0  0  0  0  0  0
   -1.9214    1.9673    0.0020 C   0  0  0  0  0  0  0  0  0  0  0  0
   -2.9670    2.5290    0.7403 C   0  0  0  0  0  0  0  0  0  0  0  0
   -3.3631    3.9058    0.4886 C   0  0  0  0  0  0  0  0  0  0  0  0
   -2.7258    4.6196   -0.4433 C   0  0  0  0  0  0  0  0  0  0  0  0
   -1.6192    4.0651   -1.2385 C   0  0  0  0  0  0  0  0  0  0  0  0
   -1.0523    4.7454   -2.0849 O   0  0  0  0  0  0  0  0  0  0  0  0
   -1.2609    2.7502   -0.9746 O   0  0  0  0  0  0  0  0  0  0  0  0
   -3.6053    1.7570    1.7096 C   0  0  0  0  0  0  0  0  0  0  0  0
   -3.2028    0.4377    1.9264 C   0  0  0  0  0  0  0  0  0  0  0  0
   -3.5421   -2.1662    0.6137 H   0  0  0  0  0  0  0  0  0  0  0  0
   -3.2799   -2.3842    2.3836 H   0  0  0  0  0  0  0  0  0  0  0  0
   -2.3683   -3.3474    1.2149 H   0  0  0  0  0  0  0  0  0  0  0  0
   -0.0082    0.7906   -1.3554 H   0  0  0  0  0  0  0  0  0  0  0  0
    2.3622   -0.7911    1.8870 H   0  0  0  0  0  0  0  0  0  0  0  0
    5.7886   -0.8401    2.1562 H   0  0  0  0  0  0  0  0  0  0  0  0
    4.3170   -0.9117    3.1327 H   0  0  0  0  0  0  0  0  0  0  0  0
    5.2395    0.5942    3.0524 H   0  0  0  0  0  0  0  0  0  0  0  0
    5.6162    0.4258   -0.2567 H   0  0  0  0  0  0  0  0  0  0  0  0
    4.2900    1.5960   -0.3945 H   0  0  0  0  0  0  0  0  0  0  0  0
    5.4828    1.7915    0.8673 H   0  0  0  0  0  0  0  0  0  0  0  0
    1.2253   -1.6312   -1.9887 H   0  0  0  0  0  0  0  0  0  0  0  0
    0.7497   -3.4016   -3.6086 H   0  0  0  0  0  0  0  0  0  0  0  0
   -0.9820   -3.3307   -3.2409 H   0  0  0  0  0  0  0  0  0  0  0  0
   -0.1854   -1.9486   -4.0038 H   0  0  0  0  0  0  0  0  0  0  0  0
    1.1780   -3.9830   -1.1367 H   0  0  0  0  0  0  0  0  0  0  0  0
    0.6602   -2.8657    0.1332 H   0  0  0  0  0  0  0  0  0  0  0  0
   -0.5421   -3.8155   -0.7396 H   0  0  0  0  0  0  0  0  0  0  0  0
   -4.1768    4.3360    1.0623 H   0  0  0  0  0  0  0  0  0  0  0  0
   -2.9936    5.6464   -0.6602 H   0  0  0  0  0  0  0  0  0  0  0  0
   -4.4133    2.1697    2.3087 H   0  0  0  0  0  0  0  0  0  0  0  0
   -3.6943   -0.1387    2.7048 H   0  0  0  0  0  0  0  0  0  0  0  0
  1  2  1  0
  2  3  1  0
  3  4  2  0
  4  5  1  0
  5  6  1  0
  6  7  1  0
  7  8  2  0
  7  9  1  0
  9 10  2  3
 10 11  1  0
 10 12  1  0
  5 13  1  0
 13 14  2  0
 13 15  1  0
 15 16  1  0
 15 17  1  0
  4 18  1  0
 18 19  2  0
 19 20  1  0
 20 21  2  0
 21 22  1  0
 22 23  2  0
 22 24  1  0
 19 25  1  0
 25 26  2  0
 26  3  1  0
 24 18  1  0
  1 27  1  0
  1 28  1  0
  1 29  1  0
  5 30  1  6
  9 31  1  0
 11 32  1  0
 11 33  1  0
 11 34  1  0
 12 35  1  0
 12 36  1  0
 12 37  1  0
 15 38  1  0
 16 39  1  0
 16 40  1  0
 16 41  1  0
 17 42  1  0
 17 43  1  0
 17 44  1  0
 20 45  1  0
 21 46  1  0
 25 47  1  0
 26 48  1  0
M  END
>  <Name>  (236) 
Murpaniculol

>  <PubChem ID>  (236) 
13917414

>  <CDB ID>  (236) 
CDB0236

>  <Smiles>  (236) 
COC1=C([C@@H](OC(=O)C=C(C)C)C(=O)C(C)C)C2=C(C=CC(=O)O2)C=C1

>  <Chemical class>  (236) 
7-Oxygenated Coumarins

>  <Natural source>  (236) 
Murraya paniculata

>  <Molecular Formula>  (236) 
C20H22O6

>  <InChI-Key>  (236) 
DKKNKODNHDPWFD-HXUWFJFHSA-N

>  <Total Molweight>  (236) 
358.389

>  <cLogP>  (236) 
2.9385

>  <cLogS>  (236) 
-3.541

>  <H-Acceptors>  (236) 
6

>  <H-Donors>  (236) 
0

>  <Rotatable Bonds>  (236) 
7

>  <Polar Surface Area>  (236) 
78.9

$$$$
CDB0237
     RDKit          3D

 41 42  0  0  0  0  0  0  0  0999 V2000
   -0.2889   -1.9284   -3.5456 C   0  0  0  0  0  0  0  0  0  0  0  0
    0.0112   -1.0773   -2.4453 O   0  0  0  0  0  0  0  0  0  0  0  0
   -0.9687   -0.8694   -1.5104 C   0  0  0  0  0  0  0  0  0  0  0  0
   -0.6613    0.0494   -0.4860 C   0  0  0  0  0  0  0  0  0  0  0  0
    0.6920    0.7479   -0.4458 C   0  0  1  0  0  0  0  0  0  0  0  0
    0.4733    2.1541   -0.2646 O   0  0  0  0  0  0  0  0  0  0  0  0
    1.5822    2.9187   -0.4438 C   0  0  0  0  0  0  0  0  0  0  0  0
    1.2893    4.3423   -0.0846 C   0  0  0  0  0  0  0  0  0  0  0  0
    2.6592    2.5139   -0.8601 O   0  0  0  0  0  0  0  0  0  0  0  0
    1.5814    0.1439    0.6623 C   0  0  0  0  0  0  0  0  0  0  0  0
    1.7690    0.7117    1.7427 O   0  0  0  0  0  0  0  0  0  0  0  0
    2.2251   -1.2082    0.3682 C   0  0  0  0  0  0  0  0  0  0  0  0
    1.6002   -2.2811    1.2515 C   0  0  0  0  0  0  0  0  0  0  0  0
    3.7322   -1.1180    0.5842 C   0  0  0  0  0  0  0  0  0  0  0  0
   -1.6282    0.2674    0.5150 C   0  0  0  0  0  0  0  0  0  0  0  0
   -2.8647   -0.3797    0.5110 C   0  0  0  0  0  0  0  0  0  0  0  0
   -3.8209   -0.1096    1.5728 C   0  0  0  0  0  0  0  0  0  0  0  0
   -3.5144    0.7666    2.5334 C   0  0  0  0  0  0  0  0  0  0  0  0
   -2.2291    1.4831    2.5652 C   0  0  0  0  0  0  0  0  0  0  0  0
   -1.9951    2.3065    3.4416 O   0  0  0  0  0  0  0  0  0  0  0  0
   -1.3256    1.1748    1.5587 O   0  0  0  0  0  0  0  0  0  0  0  0
   -3.1521   -1.2763   -0.5141 C   0  0  0  0  0  0  0  0  0  0  0  0
   -2.2093   -1.5208   -1.5174 C   0  0  0  0  0  0  0  0  0  0  0  0
   -1.1391   -1.5473   -4.1207 H   0  0  0  0  0  0  0  0  0  0  0  0
    0.5829   -1.9378   -4.2068 H   0  0  0  0  0  0  0  0  0  0  0  0
   -0.4632   -2.9559   -3.2104 H   0  0  0  0  0  0  0  0  0  0  0  0
    1.2143    0.6231   -1.4013 H   0  0  0  0  0  0  0  0  0  0  0  0
    0.5421    4.7507   -0.7693 H   0  0  0  0  0  0  0  0  0  0  0  0
    0.9367    4.3989    0.9485 H   0  0  0  0  0  0  0  0  0  0  0  0
    2.2057    4.9332   -0.1693 H   0  0  0  0  0  0  0  0  0  0  0  0
    2.0504   -1.4650   -0.6815 H   0  0  0  0  0  0  0  0  0  0  0  0
    0.5196   -2.3454    1.0874 H   0  0  0  0  0  0  0  0  0  0  0  0
    1.7573   -2.0659    2.3143 H   0  0  0  0  0  0  0  0  0  0  0  0
    2.0333   -3.2633    1.0359 H   0  0  0  0  0  0  0  0  0  0  0  0
    4.2200   -2.0617    0.3189 H   0  0  0  0  0  0  0  0  0  0  0  0
    3.9769   -0.8917    1.6279 H   0  0  0  0  0  0  0  0  0  0  0  0
    4.1657   -0.3252   -0.0351 H   0  0  0  0  0  0  0  0  0  0  0  0
   -4.7761   -0.6233    1.5705 H   0  0  0  0  0  0  0  0  0  0  0  0
   -4.2011    0.9977    3.3384 H   0  0  0  0  0  0  0  0  0  0  0  0
   -4.1061   -1.7979   -0.5456 H   0  0  0  0  0  0  0  0  0  0  0  0
   -2.4758   -2.2350   -2.2907 H   0  0  0  0  0  0  0  0  0  0  0  0
  1  2  1  0
  2  3  1  0
  3  4  2  0
  4  5  1  0
  5  6  1  0
  6  7  1  0
  7  8  1  0
  7  9  2  0
  5 10  1  0
 10 11  2  0
 10 12  1  0
 12 13  1  0
 12 14  1  0
  4 15  1  0
 15 16  2  0
 16 17  1  0
 17 18  2  0
 18 19  1  0
 19 20  2  0
 19 21  1  0
 16 22  1  0
 22 23  2  0
 23  3  1  0
 21 15  1  0
  1 24  1  0
  1 25  1  0
  1 26  1  0
  5 27  1  6
  8 28  1  0
  8 29  1  0
  8 30  1  0
 12 31  1  0
 13 32  1  0
 13 33  1  0
 13 34  1  0
 14 35  1  0
 14 36  1  0
 14 37  1  0
 17 38  1  0
 18 39  1  0
 22 40  1  0
 23 41  1  0
M  END
>  <Name>  (237) 
Hainanmurpanin

>  <PubChem ID>  (237) 
5317952

>  <CDB ID>  (237) 
CDB0237

>  <Smiles>  (237) 
COC1=C([C@@H](OC(C)=O)C(=O)C(C)C)C2=C(C=CC(=O)O2)C=C1

>  <Chemical class>  (237) 
7-Oxygenated Coumarins

>  <Natural source>  (237) 
Murraya paniculata

>  <Molecular Formula>  (237) 
C17H18O6

>  <InChI-Key>  (237) 
VLHOVPZUSXEINR-QGZVFWFLSA-N

>  <Total Molweight>  (237) 
318.324

>  <cLogP>  (237) 
1.6755

>  <cLogS>  (237) 
-3.105

>  <H-Acceptors>  (237) 
6

>  <H-Donors>  (237) 
0

>  <Rotatable Bonds>  (237) 
6

>  <Polar Surface Area>  (237) 
78.9

$$$$
CDB0238
     RDKit          3D

 72 76  0  0  0  0  0  0  0  0999 V2000
   -4.5798   -4.2221    0.3848 C   0  0  0  0  0  0  0  0  0  0  0  0
   -5.2969   -5.3582    0.7731 C   0  0  0  0  0  0  0  0  0  0  0  0
   -4.8722   -6.0905    1.8758 C   0  0  0  0  0  0  0  0  0  0  0  0
   -3.7447   -5.7081    2.5906 C   0  0  0  0  0  0  0  0  0  0  0  0
   -3.0281   -4.5740    2.2011 C   0  0  0  0  0  0  0  0  0  0  0  0
   -3.4394   -3.8140    1.0969 C   0  0  0  0  0  0  0  0  0  0  0  0
   -2.6862   -2.6128    0.6963 C   0  0  0  0  0  0  0  0  0  0  0  0
   -3.3062   -1.4357    0.5346 C   0  0  0  0  0  0  0  0  0  0  0  0
   -2.7270   -0.2452    0.1793 O   0  0  0  0  0  0  0  0  0  0  0  0
   -1.3652   -0.2092   -0.0214 C   0  0  0  0  0  0  0  0  0  0  0  0
   -0.7969    1.0357   -0.3579 C   0  0  0  0  0  0  0  0  0  0  0  0
    0.5970    1.0816   -0.5686 C   0  0  0  0  0  0  0  0  0  0  0  0
    1.4204   -0.0585   -0.4598 C   0  0  0  0  0  0  0  0  0  0  0  0
    0.8147   -1.2712   -0.0929 C   0  0  0  0  0  0  0  0  0  0  0  0
   -0.5713   -1.3495    0.1133 C   0  0  0  0  0  0  0  0  0  0  0  0
   -1.2164   -2.6243    0.4836 C   0  0  0  0  0  0  0  0  0  0  0  0
   -0.5349   -3.6400    0.5953 O   0  0  0  0  0  0  0  0  0  0  0  0
    1.6253   -2.3690    0.0898 O   0  0  0  0  0  0  0  0  0  0  0  0
    2.9175    0.0692   -0.7083 C   0  0  0  0  0  0  0  0  0  0  0  0
    3.7415    0.1788    0.5985 C   0  0  0  0  0  0  0  0  0  0  0  0
    5.2065    0.4093    0.1943 C   0  0  0  0  0  0  0  0  0  0  0  0
    5.6942   -0.7518   -0.6858 C   0  0  0  0  0  0  0  0  0  0  0  0
    4.7626   -0.8868   -1.9057 C   0  0  0  0  0  0  0  0  0  0  0  0
    3.3888   -1.0360   -1.5064 O   0  0  0  0  0  0  0  0  0  0  0  0
    5.1101   -2.1080   -2.7632 C   0  0  0  0  0  0  0  0  0  0  0  0
    4.9675   -3.3079   -2.0052 O   0  0  0  0  0  0  0  0  0  0  0  0
    7.0452   -0.4778   -1.0861 O   0  0  0  0  0  0  0  0  0  0  0  0
    6.0603    0.5526    1.3366 O   0  0  0  0  0  0  0  0  0  0  0  0
    3.6638   -1.0217    1.3918 O   0  0  0  0  0  0  0  0  0  0  0  0
    1.2193    2.2636   -0.8858 O   0  0  0  0  0  0  0  0  0  0  0  0
   -1.7023    2.2659   -0.4277 C   0  0  0  0  0  0  0  0  0  0  0  0
   -2.0344    2.8046    0.9825 C   0  0  0  0  0  0  0  0  0  0  0  0
   -3.0035    3.9997    0.9100 C   0  0  0  0  0  0  0  0  0  0  0  0
   -3.0952    4.6172   -0.4896 C   0  0  0  0  0  0  0  0  0  0  0  0
   -1.7743    4.5495   -1.2853 C   0  0  0  0  0  0  0  0  0  0  0  0
   -1.0781    3.2870   -1.2292 O   0  0  0  0  0  0  0  0  0  0  0  0
   -0.7726    5.6517   -0.9010 C   0  0  0  0  0  0  0  0  0  0  0  0
   -0.1466    5.3655    0.3471 O   0  0  0  0  0  0  0  0  0  0  0  0
   -4.1006    3.8857   -1.2215 O   0  0  0  0  0  0  0  0  0  0  0  0
   -2.6656    5.0051    1.8745 O   0  0  0  0  0  0  0  0  0  0  0  0
   -0.8502    3.2154    1.6943 O   0  0  0  0  0  0  0  0  0  0  0  0
   -5.5402   -7.2037    2.2905 O   0  0  0  0  0  0  0  0  0  0  0  0
   -4.9153   -3.6660   -0.4879 H   0  0  0  0  0  0  0  0  0  0  0  0
   -6.1731   -5.6539    0.2049 H   0  0  0  0  0  0  0  0  0  0  0  0
   -3.4181   -6.2926    3.4463 H   0  0  0  0  0  0  0  0  0  0  0  0
   -2.1422   -4.2945    2.7682 H   0  0  0  0  0  0  0  0  0  0  0  0
   -4.3702   -1.2896    0.6815 H   0  0  0  0  0  0  0  0  0  0  0  0
    1.0551   -3.1455    0.3019 H   0  0  0  0  0  0  0  0  0  0  0  0
    3.0931    0.9661   -1.3152 H   0  0  0  0  0  0  0  0  0  0  0  0
    3.3874    1.0001    1.2308 H   0  0  0  0  0  0  0  0  0  0  0  0
    5.2953    1.3525   -0.3596 H   0  0  0  0  0  0  0  0  0  0  0  0
    5.7122   -1.6697   -0.0856 H   0  0  0  0  0  0  0  0  0  0  0  0
    4.8513    0.0004   -2.5463 H   0  0  0  0  0  0  0  0  0  0  0  0
    4.4291   -2.1817   -3.6177 H   0  0  0  0  0  0  0  0  0  0  0  0
    6.1350   -2.0579   -3.1417 H   0  0  0  0  0  0  0  0  0  0  0  0
    4.0705   -3.2632   -1.6148 H   0  0  0  0  0  0  0  0  0  0  0  0
    7.4495   -1.3425   -1.2904 H   0  0  0  0  0  0  0  0  0  0  0  0
    6.9666    0.4221    0.9990 H   0  0  0  0  0  0  0  0  0  0  0  0
    3.0990   -1.6593    0.9084 H   0  0  0  0  0  0  0  0  0  0  0  0
    0.5182    2.9232   -1.0699 H   0  0  0  0  0  0  0  0  0  0  0  0
   -2.6132    1.9644   -0.9576 H   0  0  0  0  0  0  0  0  0  0  0  0
   -2.4893    2.0223    1.5999 H   0  0  0  0  0  0  0  0  0  0  0  0
   -4.0011    3.6358    1.1865 H   0  0  0  0  0  0  0  0  0  0  0  0
   -3.4486    5.6531   -0.4263 H   0  0  0  0  0  0  0  0  0  0  0  0
   -2.0204    4.6984   -2.3443 H   0  0  0  0  0  0  0  0  0  0  0  0
    0.0251    5.6965   -1.6500 H   0  0  0  0  0  0  0  0  0  0  0  0
   -1.2595    6.6303   -0.8458 H   0  0  0  0  0  0  0  0  0  0  0  0
    0.4255    6.1281    0.5580 H   0  0  0  0  0  0  0  0  0  0  0  0
   -4.3505    4.4213   -1.9957 H   0  0  0  0  0  0  0  0  0  0  0  0
   -1.9417    4.6228    2.4149 H   0  0  0  0  0  0  0  0  0  0  0  0
   -0.3969    3.8866    1.1330 H   0  0  0  0  0  0  0  0  0  0  0  0
   -6.2787   -7.3699    1.6824 H   0  0  0  0  0  0  0  0  0  0  0  0
  1  2  2  0
  2  3  1  0
  3  4  2  0
  4  5  1  0
  5  6  2  0
  6  7  1  0
  7  8  2  0
  8  9  1  0
  9 10  1  0
 10 11  2  0
 11 12  1  0
 12 13  2  0
 13 14  1  0
 14 15  2  0
 15 16  1  0
 16 17  2  0
 14 18  1  0
 13 19  1  0
 19 20  1  0
 20 21  1  0
 21 22  1  0
 22 23  1  0
 23 24  1  0
 23 25  1  0
 25 26  1  0
 22 27  1  0
 21 28  1  0
 20 29  1  0
 12 30  1  0
 11 31  1  0
 31 32  1  0
 32 33  1  0
 33 34  1  0
 34 35  1  0
 35 36  1  0
 35 37  1  0
 37 38  1  0
 34 39  1  0
 33 40  1  0
 32 41  1  0
  3 42  1  0
  6  1  1  0
 16  7  1  0
 15 10  1  0
 24 19  1  0
 36 31  1  0
  1 43  1  0
  2 44  1  0
  4 45  1  0
  5 46  1  0
  8 47  1  0
 18 48  1  0
 19 49  1  0
 20 50  1  0
 21 51  1  0
 22 52  1  0
 23 53  1  0
 25 54  1  0
 25 55  1  0
 26 56  1  0
 27 57  1  0
 28 58  1  0
 29 59  1  0
 30 60  1  0
 31 61  1  0
 32 62  1  0
 33 63  1  0
 34 64  1  0
 35 65  1  0
 37 66  1  0
 37 67  1  0
 38 68  1  0
 39 69  1  0
 40 70  1  0
 41 71  1  0
 42 72  1  0
M  END
>  <Name>  (238) 
Paniculatin

>  <PubChem ID>  (238) 
169419

>  <CDB ID>  (238) 
CDB0238

>  <Smiles>  (238) 
C1=CC(=CC=C1C2=COC3=C(C(=C(C(=C3C2=O)O)C4C(C(C(C(O4)CO)O)O)O)O)C5C(C(C(C(O5)CO)O)O)O)O

>  <Chemical class>  (238) 
7-Oxygenated Coumarins

>  <Natural source>  (238) 
Murraya paniculata

>  <Molecular Formula>  (238) 
C27H30O15

>  <InChI-Key>  (238) 
ISNRVVKKHPECQN-UHFFFAOYSA-N

>  <Total Molweight>  (238) 
594.52

>  <cLogP>  (238) 
-3.2002

>  <cLogS>  (238) 
-1.553

>  <H-Acceptors>  (238) 
15

>  <H-Donors>  (238) 
11

>  <Rotatable Bonds>  (238) 
5

>  <Polar Surface Area>  (238) 
267.29

$$$$
CDB0239
     RDKit          3D

 35 38  0  0  0  0  0  0  0  0999 V2000
   -4.3032   -0.3077   -0.0867 C   0  0  0  0  0  0  0  0  0  0  0  0
   -2.8443   -0.5531   -0.1604 C   0  0  0  0  0  0  0  0  0  0  0  0
   -1.8476    0.5335   -0.1536 C   0  0  0  0  0  0  0  0  0  0  0  0
   -2.1107   -0.2341    1.0327 O   0  0  0  0  0  0  0  0  0  0  0  0
   -0.7310    0.0889   -1.0426 C   0  0  0  0  0  0  0  0  0  0  0  0
   -0.9460   -1.3060   -1.3555 O   0  0  0  0  0  0  0  0  0  0  0  0
   -2.2920   -1.6511   -1.0012 C   0  0  0  0  0  0  0  0  0  0  0  0
   -2.2983   -2.8753   -0.2992 O   0  0  0  0  0  0  0  0  0  0  0  0
    0.6232    0.3455   -0.4163 C   0  0  0  0  0  0  0  0  0  0  0  0
    1.3461    1.5100   -0.7517 C   0  0  0  0  0  0  0  0  0  0  0  0
    2.5995    1.7497   -0.1715 C   0  0  0  0  0  0  0  0  0  0  0  0
    3.1432    0.8530    0.7533 C   0  0  0  0  0  0  0  0  0  0  0  0
    2.4341   -0.2876    1.1190 C   0  0  0  0  0  0  0  0  0  0  0  0
    1.1869   -0.5237    0.5370 C   0  0  0  0  0  0  0  0  0  0  0  0
    0.4481   -1.6635    0.9342 O   0  0  0  0  0  0  0  0  0  0  0  0
    0.9035   -2.5557    1.8901 C   0  0  0  0  0  0  0  0  0  0  0  0
    0.2396   -3.5168    2.2597 O   0  0  0  0  0  0  0  0  0  0  0  0
    2.2367   -2.2920    2.4529 C   0  0  0  0  0  0  0  0  0  0  0  0
    2.9620   -1.2282    2.0958 C   0  0  0  0  0  0  0  0  0  0  0  0
    0.7372    2.3590   -1.6414 O   0  0  0  0  0  0  0  0  0  0  0  0
    1.4656    3.5047   -2.0668 C   0  0  0  0  0  0  0  0  0  0  0  0
   -4.7073   -0.0915   -1.0808 H   0  0  0  0  0  0  0  0  0  0  0  0
   -4.8196   -1.1885    0.3076 H   0  0  0  0  0  0  0  0  0  0  0  0
   -4.5408    0.5407    0.5639 H   0  0  0  0  0  0  0  0  0  0  0  0
   -2.1266    1.5722   -0.2025 H   0  0  0  0  0  0  0  0  0  0  0  0
   -0.8154    0.6030   -2.0065 H   0  0  0  0  0  0  0  0  0  0  0  0
   -2.8627   -1.7726   -1.9274 H   0  0  0  0  0  0  0  0  0  0  0  0
   -1.8137   -2.6929    0.5270 H   0  0  0  0  0  0  0  0  0  0  0  0
    3.1814    2.6339   -0.4123 H   0  0  0  0  0  0  0  0  0  0  0  0
    4.1167    1.0660    1.1883 H   0  0  0  0  0  0  0  0  0  0  0  0
    2.5927   -3.0115    3.1796 H   0  0  0  0  0  0  0  0  0  0  0  0
    3.9415   -1.0510    2.5260 H   0  0  0  0  0  0  0  0  0  0  0  0
    2.3992    3.2190   -2.5625 H   0  0  0  0  0  0  0  0  0  0  0  0
    0.8506    4.0378   -2.7983 H   0  0  0  0  0  0  0  0  0  0  0  0
    1.6511    4.1856   -1.2297 H   0  0  0  0  0  0  0  0  0  0  0  0
  1  2  1  0
  2  3  1  0
  3  4  1  0
  3  5  1  0
  5  6  1  0
  6  7  1  0
  7  8  1  0
  5  9  1  0
  9 10  2  0
 10 11  1  0
 11 12  2  0
 12 13  1  0
 13 14  2  0
 14 15  1  0
 15 16  1  0
 16 17  2  0
 16 18  1  0
 18 19  2  0
 10 20  1  0
 20 21  1  0
  4  2  1  0
  7  2  1  0
 14  9  1  0
 19 13  1  0
  1 22  1  0
  1 23  1  0
  1 24  1  0
  3 25  1  0
  5 26  1  0
  7 27  1  0
  8 28  1  0
 11 29  1  0
 12 30  1  0
 18 31  1  0
 19 32  1  0
 21 33  1  0
 21 34  1  0
 21 35  1  0
M  END
>  <Name>  (239) 
Marshrin

>  <PubChem ID>  (239) 
15380805

>  <CDB ID>  (239) 
CDB0239

>  <Smiles>  (239) 
CC12C(O1)C(OC2O)C3=C(C=CC4=C3OC(=O)C=C4)OC

>  <Chemical class>  (239) 
7-Oxygenated Coumarins

>  <Natural source>  (239) 
Citrus paradisi

>  <Molecular Formula>  (239) 
C15H14O6

>  <InChI-Key>  (239) 
VUIRVFUCVWAGFV-UHFFFAOYSA-N

>  <Total Molweight>  (239) 
290.27

>  <cLogP>  (239) 
0.6277

>  <cLogS>  (239) 
-2.463

>  <H-Acceptors>  (239) 
6

>  <H-Donors>  (239) 
1

>  <Rotatable Bonds>  (239) 
2

>  <Polar Surface Area>  (239) 
77.52

$$$$
CDB0240
     RDKit          3D

 18 18  0  0  0  0  0  0  0  0999 V2000
   -2.1396   -0.4987   -0.9486 C   0  0  0  0  0  0  0  0  0  0  0  0
   -0.8153   -0.0983   -0.3672 C   0  0  0  0  0  0  0  0  0  0  0  0
   -0.5910    1.2029    0.1013 C   0  0  0  0  0  0  0  0  0  0  0  0
    0.6319    1.5749    0.6715 C   0  0  0  0  0  0  0  0  0  0  0  0
    1.6582    0.6369    0.7961 C   0  0  0  0  0  0  0  0  0  0  0  0
    1.4407   -0.6611    0.3533 C   0  0  0  0  0  0  0  0  0  0  0  0
    0.2176   -1.0254   -0.2156 C   0  0  0  0  0  0  0  0  0  0  0  0
    0.0487   -2.3226   -0.6222 O   0  0  0  0  0  0  0  0  0  0  0  0
    2.4032   -1.6286    0.4590 O   0  0  0  0  0  0  0  0  0  0  0  0
   -1.5983    2.1226   -0.0020 O   0  0  0  0  0  0  0  0  0  0  0  0
   -2.5925    0.3259   -1.5089 H   0  0  0  0  0  0  0  0  0  0  0  0
   -2.8222   -0.8014   -0.1485 H   0  0  0  0  0  0  0  0  0  0  0  0
   -2.0345   -1.3293   -1.6541 H   0  0  0  0  0  0  0  0  0  0  0  0
    0.7971    2.5881    1.0255 H   0  0  0  0  0  0  0  0  0  0  0  0
    2.6024    0.9335    1.2404 H   0  0  0  0  0  0  0  0  0  0  0  0
    0.8986   -2.7583   -0.4129 H   0  0  0  0  0  0  0  0  0  0  0  0
    3.1901   -1.2299    0.8684 H   0  0  0  0  0  0  0  0  0  0  0  0
   -1.2952    2.9686    0.3644 H   0  0  0  0  0  0  0  0  0  0  0  0
  1  2  1  0
  2  3  2  0
  3  4  1  0
  4  5  2  0
  5  6  1  0
  6  7  2  0
  7  8  1  0
  6  9  1  0
  3 10  1  0
  7  2  1  0
  1 11  1  0
  1 12  1  0
  1 13  1  0
  4 14  1  0
  5 15  1  0
  8 16  1  0
  9 17  1  0
 10 18  1  0
M  END
>  <Name>  (240) 
Versicolin

>  <PubChem ID>  (240) 
197042

>  <CDB ID>  (240) 
CDB0240

>  <Smiles>  (240) 
CC1=C(C=CC(=C1O)O)O

>  <Chemical class>  (240) 
7-Oxygenated Coumarins

>  <Natural source>  (240) 
Haplophyllum versicolor

>  <Molecular Formula>  (240) 
C7H8O3

>  <InChI-Key>  (240) 
WPFZLGOGWVNEID-UHFFFAOYSA-N

>  <Total Molweight>  (240) 
140.138

>  <cLogP>  (240) 
0.9664

>  <cLogS>  (240) 
-1.072

>  <H-Acceptors>  (240) 
3

>  <H-Donors>  (240) 
3

>  <Rotatable Bonds>  (240) 
0

>  <Polar Surface Area>  (240) 
60.69

$$$$
CDB0241
     RDKit          3D

 44 47  0  0  0  0  0  0  0  0999 V2000
    0.1502   -4.4436    1.8399 C   0  0  0  0  0  0  0  0  0  0  0  0
    0.4451   -3.0716    1.3105 C   0  0  0  0  0  0  0  0  0  0  0  0
   -0.5936   -2.1751    1.0408 C   0  0  0  0  0  0  0  0  0  0  0  0
   -0.3487   -0.8649    0.5724 C   0  0  0  0  0  0  0  0  0  0  0  0
    0.9933   -0.4481    0.4001 C   0  0  0  0  0  0  0  0  0  0  0  0
    2.0289   -1.3527    0.6564 C   0  0  0  0  0  0  0  0  0  0  0  0
    1.7595   -2.6493    1.1193 C   0  0  0  0  0  0  0  0  0  0  0  0
    3.4336   -0.9756    0.4307 C   0  0  0  0  0  0  0  0  0  0  0  0
    4.3613   -1.7151    0.7353 O   0  0  0  0  0  0  0  0  0  0  0  0
    3.7109    0.3182   -0.2074 C   0  0  0  0  0  0  0  0  0  0  0  0
    2.7558    1.2285   -0.4345 C   0  0  0  0  0  0  0  0  0  0  0  0
    1.3463    0.9403   -0.0085 C   0  0  0  0  0  0  0  0  0  0  0  0
    0.5241    1.8504    0.0260 O   0  0  0  0  0  0  0  0  0  0  0  0
    2.9530    2.4692   -1.0120 O   0  0  0  0  0  0  0  0  0  0  0  0
    4.2616    2.8172   -1.4435 C   0  0  0  0  0  0  0  0  0  0  0  0
   -1.5199   -0.0291    0.2426 C   0  0  0  0  0  0  0  0  0  0  0  0
   -2.3455    0.5220    1.2376 C   0  0  0  0  0  0  0  0  0  0  0  0
   -3.4813    1.2719    0.9100 C   0  0  0  0  0  0  0  0  0  0  0  0
   -3.7939    1.5243   -0.4268 C   0  0  0  0  0  0  0  0  0  0  0  0
   -2.9823    1.0122   -1.4395 C   0  0  0  0  0  0  0  0  0  0  0  0
   -1.8692    0.2397   -1.0944 C   0  0  0  0  0  0  0  0  0  0  0  0
   -1.0476   -0.3033   -2.1147 O   0  0  0  0  0  0  0  0  0  0  0  0
   -1.2848   -0.0577   -3.4576 C   0  0  0  0  0  0  0  0  0  0  0  0
   -0.5638   -0.5033   -4.3430 O   0  0  0  0  0  0  0  0  0  0  0  0
   -2.4633    0.7609   -3.7841 C   0  0  0  0  0  0  0  0  0  0  0  0
   -3.2683    1.2630   -2.8435 C   0  0  0  0  0  0  0  0  0  0  0  0
   -2.0854    0.2748    2.5641 O   0  0  0  0  0  0  0  0  0  0  0  0
   -1.4384    1.4040    3.1548 C   0  0  0  0  0  0  0  0  0  0  0  0
   -0.8003   -4.8180    1.4457 H   0  0  0  0  0  0  0  0  0  0  0  0
    0.9277   -5.1542    1.5405 H   0  0  0  0  0  0  0  0  0  0  0  0
    0.0958   -4.4188    2.9325 H   0  0  0  0  0  0  0  0  0  0  0  0
   -1.6248   -2.4988    1.1898 H   0  0  0  0  0  0  0  0  0  0  0  0
    2.5829   -3.3329    1.3253 H   0  0  0  0  0  0  0  0  0  0  0  0
    4.7520    0.4740   -0.4589 H   0  0  0  0  0  0  0  0  0  0  0  0
    4.2165    3.8181   -1.8830 H   0  0  0  0  0  0  0  0  0  0  0  0
    4.6168    2.1261   -2.2147 H   0  0  0  0  0  0  0  0  0  0  0  0
    4.9561    2.8516   -0.5979 H   0  0  0  0  0  0  0  0  0  0  0  0
   -4.1209    1.6606    1.6979 H   0  0  0  0  0  0  0  0  0  0  0  0
   -4.6714    2.1211   -0.6627 H   0  0  0  0  0  0  0  0  0  0  0  0
   -2.6397    0.9333   -4.8386 H   0  0  0  0  0  0  0  0  0  0  0  0
   -4.1303    1.8655   -3.1081 H   0  0  0  0  0  0  0  0  0  0  0  0
   -2.1074    2.2704    3.1904 H   0  0  0  0  0  0  0  0  0  0  0  0
   -0.5128    1.6574    2.6276 H   0  0  0  0  0  0  0  0  0  0  0  0
   -1.1776    1.1373    4.1834 H   0  0  0  0  0  0  0  0  0  0  0  0
  1  2  1  0
  2  3  2  0
  3  4  1  0
  4  5  2  0
  5  6  1  0
  6  7  2  0
  6  8  1  0
  8  9  2  0
  8 10  1  0
 10 11  2  0
 11 12  1  0
 12 13  2  0
 11 14  1  0
 14 15  1  0
  4 16  1  0
 16 17  2  0
 17 18  1  0
 18 19  2  0
 19 20  1  0
 20 21  2  0
 21 22  1  0
 22 23  1  0
 23 24  2  0
 23 25  1  0
 25 26  2  0
 17 27  1  0
 27 28  1  0
  7  2  1  0
 12  5  1  0
 21 16  1  0
 26 20  1  0
  1 29  1  0
  1 30  1  0
  1 31  1  0
  3 32  1  0
  7 33  1  0
 10 34  1  0
 15 35  1  0
 15 36  1  0
 15 37  1  0
 18 38  1  0
 19 39  1  0
 25 40  1  0
 26 41  1  0
 28 42  1  0
 28 43  1  0
 28 44  1  0
M  END
>  <Name>  (241) 
Pummeloquinone

>  <PubChem ID>  (241) 
10429580

>  <CDB ID>  (241) 
CDB0241

>  <Smiles>  (241) 
CC1=CC(=C2C(=C1)C(=O)C=C(C2=O)OC)C3=C(C=CC4=C3OC(=O)C=C4)OC

>  <Chemical class>  (241) 
7-Oxygenated Coumarins

>  <Natural source>  (241) 
Citrus grandis x C. paradisi

>  <Molecular Formula>  (241) 
C22H16O6

>  <InChI-Key>  (241) 
GPGGGLOHXPWGDO-UHFFFAOYSA-N

>  <Total Molweight>  (241) 
376.363

>  <cLogP>  (241) 
3.1384

>  <cLogS>  (241) 
-6.103

>  <H-Acceptors>  (241) 
6

>  <H-Donors>  (241) 
0

>  <Rotatable Bonds>  (241) 
3

>  <Polar Surface Area>  (241) 
78.9

$$$$
CDB0242
     RDKit          3D

 29 31  0  0  0  0  0  0  0  0999 V2000
    4.2988   -0.2683   -0.3662 C   0  0  0  0  0  0  0  0  0  0  0  0
    3.2258    0.4587    0.4050 C   0  0  0  0  0  0  0  0  0  0  0  0
    3.5421    1.1267    1.5287 C   0  0  0  0  0  0  0  0  0  0  0  0
    1.8381    0.3930   -0.2124 C   0  0  0  0  0  0  0  0  0  0  0  0
    0.6613    0.9945    0.5852 C   0  0  0  0  0  0  0  0  0  0  0  0
   -0.4213    0.1062    0.1048 C   0  0  0  0  0  0  0  0  0  0  0  0
    0.1368   -1.0227   -0.4677 C   0  0  0  0  0  0  0  0  0  0  0  0
    1.5067   -1.0004   -0.4943 O   0  0  0  0  0  0  0  0  0  0  0  0
   -0.6363   -2.0661   -0.9383 C   0  0  0  0  0  0  0  0  0  0  0  0
   -2.0281   -1.9542   -0.8377 C   0  0  0  0  0  0  0  0  0  0  0  0
   -2.6112   -0.8119   -0.2606 C   0  0  0  0  0  0  0  0  0  0  0  0
   -1.7924    0.2143    0.2160 C   0  0  0  0  0  0  0  0  0  0  0  0
   -2.3302    1.3616    0.8178 O   0  0  0  0  0  0  0  0  0  0  0  0
   -3.7029    1.5185    0.9506 C   0  0  0  0  0  0  0  0  0  0  0  0
   -4.2018    2.5111    1.4684 O   0  0  0  0  0  0  0  0  0  0  0  0
   -4.5552    0.4310    0.4370 C   0  0  0  0  0  0  0  0  0  0  0  0
   -4.0526   -0.6682   -0.1335 C   0  0  0  0  0  0  0  0  0  0  0  0
    4.3272    0.0852   -1.4022 H   0  0  0  0  0  0  0  0  0  0  0  0
    5.2945   -0.1099    0.0621 H   0  0  0  0  0  0  0  0  0  0  0  0
    4.1095   -1.3464   -0.3689 H   0  0  0  0  0  0  0  0  0  0  0  0
    2.8152    1.6847    2.1087 H   0  0  0  0  0  0  0  0  0  0  0  0
    4.5604    1.1385    1.9088 H   0  0  0  0  0  0  0  0  0  0  0  0
    1.8925    0.8971   -1.1899 H   0  0  0  0  0  0  0  0  0  0  0  0
    0.7649    0.8678    1.6674 H   0  0  0  0  0  0  0  0  0  0  0  0
    0.5042    2.0487    0.3409 H   0  0  0  0  0  0  0  0  0  0  0  0
   -0.1737   -2.9448   -1.3750 H   0  0  0  0  0  0  0  0  0  0  0  0
   -2.6504   -2.7658   -1.2076 H   0  0  0  0  0  0  0  0  0  0  0  0
   -5.6224    0.5772    0.5519 H   0  0  0  0  0  0  0  0  0  0  0  0
   -4.6993   -1.4563   -0.5029 H   0  0  0  0  0  0  0  0  0  0  0  0
  1  2  1  0
  2  3  2  0
  2  4  1  0
  4  5  1  0
  5  6  1  0
  6  7  2  0
  7  8  1  0
  7  9  1  0
  9 10  2  0
 10 11  1  0
 11 12  2  0
 12 13  1  0
 13 14  1  0
 14 15  2  0
 14 16  1  0
 16 17  2  0
  8  4  1  0
 12  6  1  0
 17 11  1  0
  1 18  1  0
  1 19  1  0
  1 20  1  0
  3 21  1  0
  3 22  1  0
  4 23  1  0
  5 24  1  0
  5 25  1  0
  9 26  1  0
 10 27  1  0
 16 28  1  0
 17 29  1  0
M  END
>  <Name>  (242) 
Angenomalin (Masquin)

>  <PubChem ID>  (242) 
5318874

>  <CDB ID>  (242) 
CDB0242

>  <Smiles>  (242) 
CC(=C)C1CC2=C(O1)C=CC3=C2OC(=O)C=C3

>  <Chemical class>  (242) 
7-Oxygenated Coumarins

>  <Natural source>  (242) 
Angelica anomala

>  <Molecular Formula>  (242) 
C14H12O3

>  <InChI-Key>  (242) 
WLRXMMDATRQQNQ-GFCCVEGCSA-N

>  <Total Molweight>  (242) 
228.246

>  <cLogP>  (242) 
2.9232

>  <cLogS>  (242) 
-3.448

>  <H-Acceptors>  (242) 
3

>  <H-Donors>  (242) 
0

>  <Rotatable Bonds>  (242) 
1

>  <Polar Surface Area>  (242) 
35.53

$$$$
CDB0243
     RDKit          3D

 32 34  0  0  0  0  0  0  0  0999 V2000
    4.0388   -0.5889    0.2440 C   0  0  0  0  0  0  0  0  0  0  0  0
    2.9158    0.4583    0.2348 C   0  0  0  0  0  0  0  0  0  0  0  0
    2.8895    1.1357   -1.1401 C   0  0  0  0  0  0  0  0  0  0  0  0
    1.5637   -0.1999    0.6053 C   0  0  0  0  0  0  0  0  0  0  0  0
    0.3971    0.7891    0.7987 C   0  0  0  0  0  0  0  0  0  0  0  0
   -0.7052   -0.0411    0.2659 C   0  0  0  0  0  0  0  0  0  0  0  0
   -0.1852   -1.1282   -0.4128 C   0  0  0  0  0  0  0  0  0  0  0  0
    1.1820   -1.1933   -0.3870 O   0  0  0  0  0  0  0  0  0  0  0  0
   -0.9920   -2.0409   -1.0649 C   0  0  0  0  0  0  0  0  0  0  0  0
   -2.3781   -1.8516   -1.0175 C   0  0  0  0  0  0  0  0  0  0  0  0
   -2.9231   -0.7536   -0.3294 C   0  0  0  0  0  0  0  0  0  0  0  0
   -2.0717    0.1521    0.3074 C   0  0  0  0  0  0  0  0  0  0  0  0
   -2.5722    1.2695    0.9929 O   0  0  0  0  0  0  0  0  0  0  0  0
   -3.9377    1.5067    1.0676 C   0  0  0  0  0  0  0  0  0  0  0  0
   -4.4045    2.4700    1.6645 O   0  0  0  0  0  0  0  0  0  0  0  0
   -4.8238    0.5409    0.3933 C   0  0  0  0  0  0  0  0  0  0  0  0
   -4.3576   -0.5243   -0.2658 C   0  0  0  0  0  0  0  0  0  0  0  0
    3.2384    1.4664    1.2021 O   0  0  0  0  0  0  0  0  0  0  0  0
    4.1087   -1.0777    1.2225 H   0  0  0  0  0  0  0  0  0  0  0  0
    3.8843   -1.3606   -0.5169 H   0  0  0  0  0  0  0  0  0  0  0  0
    5.0123   -0.1173    0.0667 H   0  0  0  0  0  0  0  0  0  0  0  0
    2.1798    1.9681   -1.1690 H   0  0  0  0  0  0  0  0  0  0  0  0
    2.6347    0.4318   -1.9387 H   0  0  0  0  0  0  0  0  0  0  0  0
    3.8680    1.5735   -1.3717 H   0  0  0  0  0  0  0  0  0  0  0  0
    1.6948   -0.7436    1.5539 H   0  0  0  0  0  0  0  0  0  0  0  0
    0.2680    1.0497    1.8532 H   0  0  0  0  0  0  0  0  0  0  0  0
    0.4964    1.7019    0.2065 H   0  0  0  0  0  0  0  0  0  0  0  0
   -0.5593   -2.8817   -1.5967 H   0  0  0  0  0  0  0  0  0  0  0  0
   -3.0255   -2.5639   -1.5237 H   0  0  0  0  0  0  0  0  0  0  0  0
   -5.8846    0.7487    0.4643 H   0  0  0  0  0  0  0  0  0  0  0  0
   -5.0289   -1.2210   -0.7553 H   0  0  0  0  0  0  0  0  0  0  0  0
    3.4772    1.0255    2.0361 H   0  0  0  0  0  0  0  0  0  0  0  0
  1  2  1  0
  2  3  1  0
  2  4  1  0
  4  5  1  0
  5  6  1  0
  6  7  2  0
  7  8  1  0
  7  9  1  0
  9 10  2  0
 10 11  1  0
 11 12  2  0
 12 13  1  0
 13 14  1  0
 14 15  2  0
 14 16  1  0
 16 17  2  0
  2 18  1  0
  8  4  1  0
 12  6  1  0
 17 11  1  0
  1 19  1  0
  1 20  1  0
  1 21  1  0
  3 22  1  0
  3 23  1  0
  3 24  1  0
  4 25  1  0
  5 26  1  0
  5 27  1  0
  9 28  1  0
 10 29  1  0
 16 30  1  0
 17 31  1  0
 18 32  1  0
M  END
>  <Name>  (243) 
(-)-Columbianetin

>  <PubChem ID>  (243) 
442104

>  <CDB ID>  (243) 
CDB0243

>  <Smiles>  (243) 
CC(C)(C1CC2=C(O1)C=CC3=C2OC(=O)C=C3)O

>  <Chemical class>  (243) 
7-Oxygenated Coumarins

>  <Natural source>  (243) 
Xanthoxylum arnottianum

>  <Molecular Formula>  (243) 
C14H14O4

>  <InChI-Key>  (243) 
YRAQEMCYCSSHJG-LLVKDONJSA-N

>  <Total Molweight>  (243) 
246.261

>  <cLogP>  (243) 
1.8611

>  <cLogS>  (243) 
-3.095

>  <H-Acceptors>  (243) 
4

>  <H-Donors>  (243) 
1

>  <Rotatable Bonds>  (243) 
1

>  <Polar Surface Area>  (243) 
55.76

$$$$
CDB0244
     RDKit          3D

 32 34  0  0  0  0  0  0  0  0999 V2000
    4.0388   -0.5889    0.2440 C   0  0  0  0  0  0  0  0  0  0  0  0
    2.9158    0.4583    0.2348 C   0  0  0  0  0  0  0  0  0  0  0  0
    2.8895    1.1357   -1.1401 C   0  0  0  0  0  0  0  0  0  0  0  0
    1.5637   -0.1999    0.6053 C   0  0  0  0  0  0  0  0  0  0  0  0
    0.3971    0.7891    0.7987 C   0  0  0  0  0  0  0  0  0  0  0  0
   -0.7052   -0.0411    0.2659 C   0  0  0  0  0  0  0  0  0  0  0  0
   -0.1852   -1.1282   -0.4128 C   0  0  0  0  0  0  0  0  0  0  0  0
    1.1820   -1.1933   -0.3870 O   0  0  0  0  0  0  0  0  0  0  0  0
   -0.9920   -2.0409   -1.0649 C   0  0  0  0  0  0  0  0  0  0  0  0
   -2.3781   -1.8516   -1.0175 C   0  0  0  0  0  0  0  0  0  0  0  0
   -2.9231   -0.7536   -0.3294 C   0  0  0  0  0  0  0  0  0  0  0  0
   -2.0717    0.1521    0.3074 C   0  0  0  0  0  0  0  0  0  0  0  0
   -2.5722    1.2695    0.9929 O   0  0  0  0  0  0  0  0  0  0  0  0
   -3.9377    1.5067    1.0676 C   0  0  0  0  0  0  0  0  0  0  0  0
   -4.4045    2.4700    1.6645 O   0  0  0  0  0  0  0  0  0  0  0  0
   -4.8238    0.5409    0.3933 C   0  0  0  0  0  0  0  0  0  0  0  0
   -4.3576   -0.5243   -0.2658 C   0  0  0  0  0  0  0  0  0  0  0  0
    3.2384    1.4664    1.2021 O   0  0  0  0  0  0  0  0  0  0  0  0
    4.1087   -1.0777    1.2225 H   0  0  0  0  0  0  0  0  0  0  0  0
    3.8843   -1.3606   -0.5169 H   0  0  0  0  0  0  0  0  0  0  0  0
    5.0123   -0.1173    0.0667 H   0  0  0  0  0  0  0  0  0  0  0  0
    2.1798    1.9681   -1.1690 H   0  0  0  0  0  0  0  0  0  0  0  0
    2.6347    0.4318   -1.9387 H   0  0  0  0  0  0  0  0  0  0  0  0
    3.8680    1.5735   -1.3717 H   0  0  0  0  0  0  0  0  0  0  0  0
    1.6948   -0.7436    1.5539 H   0  0  0  0  0  0  0  0  0  0  0  0
    0.2680    1.0497    1.8532 H   0  0  0  0  0  0  0  0  0  0  0  0
    0.4964    1.7019    0.2065 H   0  0  0  0  0  0  0  0  0  0  0  0
   -0.5593   -2.8817   -1.5967 H   0  0  0  0  0  0  0  0  0  0  0  0
   -3.0255   -2.5639   -1.5237 H   0  0  0  0  0  0  0  0  0  0  0  0
   -5.8846    0.7487    0.4643 H   0  0  0  0  0  0  0  0  0  0  0  0
   -5.0289   -1.2210   -0.7553 H   0  0  0  0  0  0  0  0  0  0  0  0
    3.4772    1.0255    2.0361 H   0  0  0  0  0  0  0  0  0  0  0  0
  1  2  1  0
  2  3  1  0
  2  4  1  0
  4  5  1  0
  5  6  1  0
  6  7  2  0
  7  8  1  0
  7  9  1  0
  9 10  2  0
 10 11  1  0
 11 12  2  0
 12 13  1  0
 13 14  1  0
 14 15  2  0
 14 16  1  0
 16 17  2  0
  2 18  1  0
  8  4  1  0
 12  6  1  0
 17 11  1  0
  1 19  1  0
  1 20  1  0
  1 21  1  0
  3 22  1  0
  3 23  1  0
  3 24  1  0
  4 25  1  0
  5 26  1  0
  5 27  1  0
  9 28  1  0
 10 29  1  0
 16 30  1  0
 17 31  1  0
 18 32  1  0
M  END
>  <Name>  (244) 
Columbianetin (Zosimol)

>  <PubChem ID>  (244) 
92201

>  <CDB ID>  (244) 
CDB0244

>  <Smiles>  (244) 
CC(C)(C1CC2=C(O1)C=CC3=C2OC(=O)C=C3)O

>  <Chemical class>  (244) 
7-Oxygenated Coumarins

>  <Natural source>  (244) 
Angelica laxiflora

>  <Molecular Formula>  (244) 
C14H14O4

>  <InChI-Key>  (244) 
YRAQEMCYCSSHJG-LLVKDONJSA-N

>  <Total Molweight>  (244) 
246.261

>  <cLogP>  (244) 
1.8611

>  <cLogS>  (244) 
-3.095

>  <H-Acceptors>  (244) 
4

>  <H-Donors>  (244) 
1

>  <Rotatable Bonds>  (244) 
1

>  <Polar Surface Area>  (244) 
55.76

$$$$
CDB0245
     RDKit          3D

 44 46  0  0  0  0  0  0  0  0999 V2000
   -5.8697    1.3605   -0.2026 C   0  0  0  0  0  0  0  0  0  0  0  0
   -4.5718    0.6208   -0.1273 C   0  0  0  0  0  0  0  0  0  0  0  0
   -4.0874   -0.1012    0.9047 C   0  0  0  0  0  0  0  0  0  0  0  0
   -4.7809   -0.3238    2.2184 C   0  0  0  0  0  0  0  0  0  0  0  0
   -2.7471   -0.7709    0.8243 C   0  0  0  0  0  0  0  0  0  0  0  0
   -2.2294   -1.3306    1.7795 O   0  0  0  0  0  0  0  0  0  0  0  0
   -2.2215   -0.6867   -0.4202 O   0  0  0  0  0  0  0  0  0  0  0  0
   -0.9055   -1.2469   -0.7177 C   0  0  0  0  0  0  0  0  0  0  0  0
   -0.9163   -2.7671   -0.4931 C   0  0  0  0  0  0  0  0  0  0  0  0
   -0.7402   -0.9832   -2.2267 C   0  0  0  0  0  0  0  0  0  0  0  0
    0.2002   -0.5290    0.1065 C   0  0  0  0  0  0  0  0  0  0  0  0
    1.6189   -1.1075   -0.0660 C   0  0  0  0  0  0  0  0  0  0  0  0
    2.4024    0.1434    0.0226 C   0  0  0  0  0  0  0  0  0  0  0  0
    1.5587    1.2308   -0.1077 C   0  0  0  0  0  0  0  0  0  0  0  0
    0.2395    0.8911   -0.2412 O   0  0  0  0  0  0  0  0  0  0  0  0
    2.0310    2.5291   -0.1210 C   0  0  0  0  0  0  0  0  0  0  0  0
    3.4091    2.7333    0.0153 C   0  0  0  0  0  0  0  0  0  0  0  0
    4.2807    1.6386    0.1499 C   0  0  0  0  0  0  0  0  0  0  0  0
    3.7630    0.3415    0.1458 C   0  0  0  0  0  0  0  0  0  0  0  0
    4.5979   -0.7808    0.2569 O   0  0  0  0  0  0  0  0  0  0  0  0
    5.9724   -0.6357    0.3840 C   0  0  0  0  0  0  0  0  0  0  0  0
    6.7265   -1.5971    0.4807 O   0  0  0  0  0  0  0  0  0  0  0  0
    6.5035    0.7392    0.3972 C   0  0  0  0  0  0  0  0  0  0  0  0
    5.7175    1.8147    0.2870 C   0  0  0  0  0  0  0  0  0  0  0  0
   -6.4406    1.3495    0.7271 H   0  0  0  0  0  0  0  0  0  0  0  0
   -5.6782    2.4077   -0.4580 H   0  0  0  0  0  0  0  0  0  0  0  0
   -6.4947    0.9285   -0.9903 H   0  0  0  0  0  0  0  0  0  0  0  0
   -3.9777    0.7171   -1.0359 H   0  0  0  0  0  0  0  0  0  0  0  0
   -5.7966    0.0755    2.2476 H   0  0  0  0  0  0  0  0  0  0  0  0
   -4.2177    0.1498    3.0297 H   0  0  0  0  0  0  0  0  0  0  0  0
   -4.8589   -1.3958    2.4311 H   0  0  0  0  0  0  0  0  0  0  0  0
   -0.9149   -3.0207    0.5713 H   0  0  0  0  0  0  0  0  0  0  0  0
   -0.0427   -3.2498   -0.9435 H   0  0  0  0  0  0  0  0  0  0  0  0
   -1.8174   -3.2177   -0.9245 H   0  0  0  0  0  0  0  0  0  0  0  0
   -1.5517   -1.4595   -2.7905 H   0  0  0  0  0  0  0  0  0  0  0  0
   -0.8062    0.0868   -2.4537 H   0  0  0  0  0  0  0  0  0  0  0  0
    0.2080   -1.3630   -2.6173 H   0  0  0  0  0  0  0  0  0  0  0  0
   -0.0495   -0.5525    1.1746 H   0  0  0  0  0  0  0  0  0  0  0  0
    1.7804   -1.5745   -1.0410 H   0  0  0  0  0  0  0  0  0  0  0  0
    1.8557   -1.8224    0.7272 H   0  0  0  0  0  0  0  0  0  0  0  0
    1.3480    3.3649   -0.2301 H   0  0  0  0  0  0  0  0  0  0  0  0
    3.7944    3.7503    0.0120 H   0  0  0  0  0  0  0  0  0  0  0  0
    7.5782    0.8262    0.5010 H   0  0  0  0  0  0  0  0  0  0  0  0
    6.1308    2.8171    0.2982 H   0  0  0  0  0  0  0  0  0  0  0  0
  1  2  1  0
  2  3  2  3
  3  4  1  0
  3  5  1  0
  5  6  2  0
  5  7  1  0
  7  8  1  0
  8  9  1  0
  8 10  1  0
  8 11  1  0
 11 12  1  0
 12 13  1  0
 13 14  2  0
 14 15  1  0
 14 16  1  0
 16 17  2  0
 17 18  1  0
 18 19  2  0
 19 20  1  0
 20 21  1  0
 21 22  2  0
 21 23  1  0
 23 24  2  0
 15 11  1  0
 19 13  1  0
 24 18  1  0
  1 25  1  0
  1 26  1  0
  1 27  1  0
  2 28  1  0
  4 29  1  0
  4 30  1  0
  4 31  1  0
  9 32  1  0
  9 33  1  0
  9 34  1  0
 10 35  1  0
 10 36  1  0
 10 37  1  0
 11 38  1  0
 12 39  1  0
 12 40  1  0
 16 41  1  0
 17 42  1  0
 23 43  1  0
 24 44  1  0
M  END
>  <Name>  (245) 
Columbianin

>  <PubChem ID>  (245) 
6436246

>  <CDB ID>  (245) 
CDB0245

>  <Smiles>  (245) 
CC=C(C)C(=O)OC(C)(C)C1CC2=C(O1)C=CC3=C2OC(=O)C=C3

>  <Chemical class>  (245) 
7-Oxygenated Coumarins

>  <Natural source>  (245) 
Lomatium columbianurn

>  <Molecular Formula>  (245) 
C19H20O5

>  <InChI-Key>  (245) 
JRIBPWOXWIRQOQ-OAHLLOKOSA-N

>  <Total Molweight>  (245) 
328.363

>  <cLogP>  (245) 
3.6087

>  <cLogS>  (245) 
-3.941

>  <H-Acceptors>  (245) 
5

>  <H-Donors>  (245) 
0

>  <Rotatable Bonds>  (245) 
4

>  <Polar Surface Area>  (245) 
61.83

$$$$
CDB0246
     RDKit          3D

 43 45  0  0  0  0  0  0  0  0999 V2000
   -5.1839    1.3018   -1.2979 C   0  0  0  0  0  0  0  0  0  0  0  0
   -3.9735    0.3728   -1.2549 C   0  0  0  0  0  0  0  0  0  0  0  0
   -4.3603   -1.0459   -1.6559 C   0  0  0  0  0  0  0  0  0  0  0  0
   -3.3503    0.3622    0.1300 C   0  0  0  0  0  0  0  0  0  0  0  0
   -3.9171    0.7138    1.1530 O   0  0  0  0  0  0  0  0  0  0  0  0
   -2.0743   -0.1054    0.0485 O   0  0  0  0  0  0  0  0  0  0  0  0
   -1.2363   -0.2346    1.2335 C   0  0  0  0  0  0  0  0  0  0  0  0
   -1.8457   -1.2510    2.2153 C   0  0  0  0  0  0  0  0  0  0  0  0
   -1.0385    1.1233    1.9280 C   0  0  0  0  0  0  0  0  0  0  0  0
    0.1177   -0.8028    0.7173 C   0  0  0  0  0  0  0  0  0  0  0  0
    0.7630    0.0133   -0.4220 C   0  0  0  0  0  0  0  0  0  0  0  0
    2.1873   -0.1801   -0.0749 C   0  0  0  0  0  0  0  0  0  0  0  0
    2.2901   -0.6987    1.2027 C   0  0  0  0  0  0  0  0  0  0  0  0
    1.0818   -0.9394    1.7995 O   0  0  0  0  0  0  0  0  0  0  0  0
    3.5119   -0.9250    1.8067 C   0  0  0  0  0  0  0  0  0  0  0  0
    4.6730   -0.6256    1.0842 C   0  0  0  0  0  0  0  0  0  0  0  0
    4.5860   -0.1000   -0.2168 C   0  0  0  0  0  0  0  0  0  0  0  0
    3.3307    0.1244   -0.7861 C   0  0  0  0  0  0  0  0  0  0  0  0
    3.1966    0.6630   -2.0748 O   0  0  0  0  0  0  0  0  0  0  0  0
    4.3146    0.9835   -2.8325 C   0  0  0  0  0  0  0  0  0  0  0  0
    4.2280    1.4516   -3.9619 O   0  0  0  0  0  0  0  0  0  0  0  0
    5.6327    0.7363   -2.2208 C   0  0  0  0  0  0  0  0  0  0  0  0
    5.7714    0.2278   -0.9925 C   0  0  0  0  0  0  0  0  0  0  0  0
   -4.9069    2.3161   -0.9904 H   0  0  0  0  0  0  0  0  0  0  0  0
   -5.5968    1.3559   -2.3106 H   0  0  0  0  0  0  0  0  0  0  0  0
   -5.9778    0.9576   -0.6256 H   0  0  0  0  0  0  0  0  0  0  0  0
   -3.2271    0.7667   -1.9560 H   0  0  0  0  0  0  0  0  0  0  0  0
   -5.0844   -1.4733   -0.9534 H   0  0  0  0  0  0  0  0  0  0  0  0
   -3.4850   -1.7045   -1.6647 H   0  0  0  0  0  0  0  0  0  0  0  0
   -4.8035   -1.0622   -2.6570 H   0  0  0  0  0  0  0  0  0  0  0  0
   -1.1728   -1.4572    3.0541 H   0  0  0  0  0  0  0  0  0  0  0  0
   -2.0682   -2.1954    1.7059 H   0  0  0  0  0  0  0  0  0  0  0  0
   -2.7912   -0.8974    2.6375 H   0  0  0  0  0  0  0  0  0  0  0  0
   -0.7790    1.9075    1.2101 H   0  0  0  0  0  0  0  0  0  0  0  0
   -1.9539    1.4592    2.4256 H   0  0  0  0  0  0  0  0  0  0  0  0
   -0.2597    1.0779    2.6960 H   0  0  0  0  0  0  0  0  0  0  0  0
   -0.0604   -1.8192    0.3319 H   0  0  0  0  0  0  0  0  0  0  0  0
    0.4997   -0.3949   -1.4021 H   0  0  0  0  0  0  0  0  0  0  0  0
    0.5131    1.0767   -0.3894 H   0  0  0  0  0  0  0  0  0  0  0  0
    3.5662   -1.3263    2.8132 H   0  0  0  0  0  0  0  0  0  0  0  0
    5.6418   -0.8021    1.5458 H   0  0  0  0  0  0  0  0  0  0  0  0
    6.4893    0.9944   -2.8315 H   0  0  0  0  0  0  0  0  0  0  0  0
    6.7517    0.0554   -0.5624 H   0  0  0  0  0  0  0  0  0  0  0  0
  1  2  1  0
  2  3  1  0
  2  4  1  0
  4  5  2  0
  4  6  1  0
  6  7  1  0
  7  8  1  0
  7  9  1  0
  7 10  1  0
 10 11  1  0
 11 12  1  0
 12 13  2  0
 13 14  1  0
 13 15  1  0
 15 16  2  0
 16 17  1  0
 17 18  2  0
 18 19  1  0
 19 20  1  0
 20 21  2  0
 20 22  1  0
 22 23  2  0
 14 10  1  0
 18 12  1  0
 23 17  1  0
  1 24  1  0
  1 25  1  0
  1 26  1  0
  2 27  1  0
  3 28  1  0
  3 29  1  0
  3 30  1  0
  8 31  1  0
  8 32  1  0
  8 33  1  0
  9 34  1  0
  9 35  1  0
  9 36  1  0
 10 37  1  0
 11 38  1  0
 11 39  1  0
 15 40  1  0
 16 41  1  0
 22 42  1  0
 23 43  1  0
M  END
>  <Name>  (246) 
Cnidiadin

>  <PubChem ID>  (246) 
101937463

>  <CDB ID>  (246) 
CDB0246

>  <Smiles>  (246) 
CC(C)C(=O)OC(C)(C)C1CC2=C(O1)C=CC3=C2OC(=O)C=C3

>  <Chemical class>  (246) 
7-Oxygenated Coumarins

>  <Natural source>  (246) 
Cnidium japonicum

>  <Molecular Formula>  (246) 
C18H20O5

>  <InChI-Key>  (246) 
JBQHVGSHZLWWDC-CQSZACIVSA-N

>  <Total Molweight>  (246) 
316.352

>  <cLogP>  (246) 
3.0184

>  <cLogS>  (246) 
-3.935

>  <H-Acceptors>  (246) 
5

>  <H-Donors>  (246) 
0

>  <Rotatable Bonds>  (246) 
4

>  <Polar Surface Area>  (246) 
61.83

$$$$
CDB0247
     RDKit          3D

 45 48  0  0  0  0  0  0  0  0999 V2000
   -4.9481    0.6393   -0.3371 C   0  0  0  0  0  0  0  0  0  0  0  0
   -4.1240    0.7266   -1.5735 C   0  0  0  0  0  0  0  0  0  0  0  0
   -2.6431    1.0835   -1.5714 C   0  0  0  0  0  0  0  0  0  0  0  0
   -3.6752    2.0469   -1.8838 O   0  0  0  0  0  0  0  0  0  0  0  0
   -1.8179    0.7138   -2.7675 C   0  0  0  0  0  0  0  0  0  0  0  0
   -1.9362    1.3339   -0.2875 C   0  0  0  0  0  0  0  0  0  0  0  0
   -1.3645    2.3859   -0.0514 O   0  0  0  0  0  0  0  0  0  0  0  0
   -1.9804    0.2386    0.5066 O   0  0  0  0  0  0  0  0  0  0  0  0
   -1.3040    0.1505    1.7941 C   0  0  0  0  0  0  0  0  0  0  0  0
   -1.3676    1.4446    2.6191 C   0  0  0  0  0  0  0  0  0  0  0  0
   -2.1295   -0.9141    2.5481 C   0  0  0  0  0  0  0  0  0  0  0  0
    0.1515   -0.3658    1.6330 C   0  0  0  0  0  0  0  0  0  0  0  0
    1.1512    0.5722    0.9334 C   0  0  0  0  0  0  0  0  0  0  0  0
    2.0308   -0.4455    0.3149 C   0  0  0  0  0  0  0  0  0  0  0  0
    1.3841   -1.6677    0.3076 C   0  0  0  0  0  0  0  0  0  0  0  0
    0.1563   -1.6387    0.9129 O   0  0  0  0  0  0  0  0  0  0  0  0
    1.9381   -2.7892   -0.2781 C   0  0  0  0  0  0  0  0  0  0  0  0
    3.2025   -2.6703   -0.8666 C   0  0  0  0  0  0  0  0  0  0  0  0
    3.8757   -1.4357   -0.8646 C   0  0  0  0  0  0  0  0  0  0  0  0
    3.2736   -0.3230   -0.2730 C   0  0  0  0  0  0  0  0  0  0  0  0
    3.9017    0.9315   -0.2639 O   0  0  0  0  0  0  0  0  0  0  0  0
    5.1549    1.1046   -0.8349 C   0  0  0  0  0  0  0  0  0  0  0  0
    5.7336    2.1850   -0.8333 O   0  0  0  0  0  0  0  0  0  0  0  0
    5.7791   -0.0790   -1.4533 C   0  0  0  0  0  0  0  0  0  0  0  0
    5.1868   -1.2770   -1.4729 C   0  0  0  0  0  0  0  0  0  0  0  0
   -4.8559   -0.3565    0.1070 H   0  0  0  0  0  0  0  0  0  0  0  0
   -6.0025    0.8060   -0.5788 H   0  0  0  0  0  0  0  0  0  0  0  0
   -4.6571    1.3800    0.4146 H   0  0  0  0  0  0  0  0  0  0  0  0
   -4.5124    0.1132   -2.3760 H   0  0  0  0  0  0  0  0  0  0  0  0
   -1.2994   -0.2337   -2.5884 H   0  0  0  0  0  0  0  0  0  0  0  0
   -1.0656    1.4844   -2.9650 H   0  0  0  0  0  0  0  0  0  0  0  0
   -2.4287    0.5998   -3.6694 H   0  0  0  0  0  0  0  0  0  0  0  0
   -2.3807    1.8619    2.6168 H   0  0  0  0  0  0  0  0  0  0  0  0
   -1.0699    1.2649    3.6583 H   0  0  0  0  0  0  0  0  0  0  0  0
   -0.6991    2.2183    2.2313 H   0  0  0  0  0  0  0  0  0  0  0  0
   -3.1629   -0.5738    2.6867 H   0  0  0  0  0  0  0  0  0  0  0  0
   -1.7052   -1.1350    3.5332 H   0  0  0  0  0  0  0  0  0  0  0  0
   -2.1929   -1.8488    1.9793 H   0  0  0  0  0  0  0  0  0  0  0  0
    0.5441   -0.5908    2.6375 H   0  0  0  0  0  0  0  0  0  0  0  0
    0.7087    1.1737    0.1404 H   0  0  0  0  0  0  0  0  0  0  0  0
    1.6681    1.2170    1.6491 H   0  0  0  0  0  0  0  0  0  0  0  0
    1.4069   -3.7350   -0.2764 H   0  0  0  0  0  0  0  0  0  0  0  0
    3.6544   -3.5455   -1.3277 H   0  0  0  0  0  0  0  0  0  0  0  0
    6.7550    0.0825   -1.8947 H   0  0  0  0  0  0  0  0  0  0  0  0
    5.6655   -2.1335   -1.9345 H   0  0  0  0  0  0  0  0  0  0  0  0
  1  2  1  0
  2  3  1  0
  3  4  1  0
  3  5  1  0
  3  6  1  0
  6  7  2  0
  6  8  1  0
  8  9  1  0
  9 10  1  0
  9 11  1  0
  9 12  1  0
 12 13  1  0
 13 14  1  0
 14 15  2  0
 15 16  1  0
 15 17  1  0
 17 18  2  0
 18 19  1  0
 19 20  2  0
 20 21  1  0
 21 22  1  0
 22 23  2  0
 22 24  1  0
 24 25  2  0
  4  2  1  0
 16 12  1  0
 20 14  1  0
 25 19  1  0
  1 26  1  0
  1 27  1  0
  1 28  1  0
  2 29  1  0
  5 30  1  0
  5 31  1  0
  5 32  1  0
 10 33  1  0
 10 34  1  0
 10 35  1  0
 11 36  1  0
 11 37  1  0
 11 38  1  0
 12 39  1  0
 13 40  1  0
 13 41  1  0
 17 42  1  0
 18 43  1  0
 24 44  1  0
 25 45  1  0
M  END
>  <Name>  (247) 
Columbianadin-Oxide

>  <PubChem ID>  (247) 
90472905

>  <CDB ID>  (247) 
CDB0247

>  <Smiles>  (247) 
CC1C(O1)(C)C(=O)OC(C)(C)C2CC3=C(O2)C=CC4=C3OC(=O)C=C4

>  <Chemical class>  (247) 
7-Oxygenated Coumarins

>  <Natural source>  (247) 
Peucedanum palustre

>  <Molecular Formula>  (247) 
C19H20O6

>  <InChI-Key>  (247) 
IXNCVCIGMCYBDD-UHFFFAOYSA-N

>  <Total Molweight>  (247) 
344.362

>  <cLogP>  (247) 
2.1779

>  <cLogS>  (247) 
-3.837

>  <H-Acceptors>  (247) 
6

>  <H-Donors>  (247) 
0

>  <Rotatable Bonds>  (247) 
4

>  <Polar Surface Area>  (247) 
74.36

$$$$
CDB0248
     RDKit          3D

 44 46  0  0  0  0  0  0  0  0999 V2000
   -5.4879   -1.2401   -0.5874 C   0  0  0  0  0  0  0  0  0  0  0  0
   -4.7700   -1.8899    0.5639 C   0  0  0  0  0  0  0  0  0  0  0  0
   -3.5812   -1.5053    1.0689 C   0  0  0  0  0  0  0  0  0  0  0  0
   -2.7186   -0.4115    0.5595 C   0  0  0  0  0  0  0  0  0  0  0  0
   -2.8098    0.1299   -0.5268 O   0  0  0  0  0  0  0  0  0  0  0  0
   -1.8084   -0.1385    1.5255 O   0  0  0  0  0  0  0  0  0  0  0  0
   -0.7777    0.8742    1.3078 C   0  0  0  0  0  0  0  0  0  0  0  0
   -1.4276    2.2495    1.0882 C   0  0  0  0  0  0  0  0  0  0  0  0
   -0.0208    0.9066    2.6494 C   0  0  0  0  0  0  0  0  0  0  0  0
    0.1610    0.4644    0.1378 C   0  0  0  0  0  0  0  0  0  0  0  0
    1.2329    1.5086   -0.2331 C   0  0  0  0  0  0  0  0  0  0  0  0
    2.3415    0.5992   -0.5942 C   0  0  0  0  0  0  0  0  0  0  0  0
    2.0576   -0.6793   -0.1513 C   0  0  0  0  0  0  0  0  0  0  0  0
    0.8371   -0.7924    0.4582 O   0  0  0  0  0  0  0  0  0  0  0  0
    2.9493   -1.7236   -0.3026 C   0  0  0  0  0  0  0  0  0  0  0  0
    4.1696   -1.4650   -0.9378 C   0  0  0  0  0  0  0  0  0  0  0  0
    4.4735   -0.1708   -1.3950 C   0  0  0  0  0  0  0  0  0  0  0  0
    3.5489    0.8595   -1.2107 C   0  0  0  0  0  0  0  0  0  0  0  0
    3.8189    2.1702   -1.6327 O   0  0  0  0  0  0  0  0  0  0  0  0
    5.0175    2.4840   -2.2584 C   0  0  0  0  0  0  0  0  0  0  0  0
    5.2820    3.6198   -2.6355 O   0  0  0  0  0  0  0  0  0  0  0  0
    5.9792    1.3845   -2.4556 C   0  0  0  0  0  0  0  0  0  0  0  0
    5.7339    0.1338   -2.0530 C   0  0  0  0  0  0  0  0  0  0  0  0
   -5.5018   -3.0628    1.1628 C   0  0  0  0  0  0  0  0  0  0  0  0
   -6.5519   -1.1263   -0.3510 H   0  0  0  0  0  0  0  0  0  0  0  0
   -5.1219   -0.2392   -0.8223 H   0  0  0  0  0  0  0  0  0  0  0  0
   -5.4024   -1.8623   -1.4839 H   0  0  0  0  0  0  0  0  0  0  0  0
   -3.1625   -2.0327    1.9218 H   0  0  0  0  0  0  0  0  0  0  0  0
   -0.6978    3.0614    1.1741 H   0  0  0  0  0  0  0  0  0  0  0  0
   -2.2236    2.4251    1.8207 H   0  0  0  0  0  0  0  0  0  0  0  0
   -1.8866    2.3285    0.0980 H   0  0  0  0  0  0  0  0  0  0  0  0
    0.3982   -0.0759    2.8942 H   0  0  0  0  0  0  0  0  0  0  0  0
    0.7896    1.6407    2.6560 H   0  0  0  0  0  0  0  0  0  0  0  0
   -0.7054    1.1534    3.4701 H   0  0  0  0  0  0  0  0  0  0  0  0
   -0.4288    0.2478   -0.7615 H   0  0  0  0  0  0  0  0  0  0  0  0
    1.5330    2.1388    0.6081 H   0  0  0  0  0  0  0  0  0  0  0  0
    0.9030    2.1386   -1.0642 H   0  0  0  0  0  0  0  0  0  0  0  0
    2.7045   -2.7167    0.0587 H   0  0  0  0  0  0  0  0  0  0  0  0
    4.8790   -2.2788   -1.0687 H   0  0  0  0  0  0  0  0  0  0  0  0
    6.9050    1.6537   -2.9493 H   0  0  0  0  0  0  0  0  0  0  0  0
    6.4571   -0.6592   -2.2079 H   0  0  0  0  0  0  0  0  0  0  0  0
   -4.9444   -3.5270    1.9832 H   0  0  0  0  0  0  0  0  0  0  0  0
   -6.4716   -2.7440    1.5589 H   0  0  0  0  0  0  0  0  0  0  0  0
   -5.6717   -3.8311    0.4012 H   0  0  0  0  0  0  0  0  0  0  0  0
  1  2  1  0
  2  3  2  3
  3  4  1  0
  4  5  2  0
  4  6  1  0
  6  7  1  0
  7  8  1  0
  7  9  1  0
  7 10  1  0
 10 11  1  0
 11 12  1  0
 12 13  2  0
 13 14  1  0
 13 15  1  0
 15 16  2  0
 16 17  1  0
 17 18  2  0
 18 19  1  0
 19 20  1  0
 20 21  2  0
 20 22  1  0
 22 23  2  0
  2 24  1  0
 14 10  1  0
 18 12  1  0
 23 17  1  0
  1 25  1  0
  1 26  1  0
  1 27  1  0
  3 28  1  0
  8 29  1  0
  8 30  1  0
  8 31  1  0
  9 32  1  0
  9 33  1  0
  9 34  1  0
 10 35  1  0
 11 36  1  0
 11 37  1  0
 15 38  1  0
 16 39  1  0
 22 40  1  0
 23 41  1  0
 24 42  1  0
 24 43  1  0
 24 44  1  0
M  END
>  <Name>  (248) 
Libanorin

>  <PubChem ID>  (248) 
442135

>  <CDB ID>  (248) 
CDB0248

>  <Smiles>  (248) 
CC(=CC(=O)OC(C)(C)C1CC2=C(O1)C=CC3=C2OC(=O)C=C3)C

>  <Chemical class>  (248) 
7-Oxygenated Coumarins

>  <Natural source>  (248) 
Libanotis schrenkiana

>  <Molecular Formula>  (248) 
C19H20O5

>  <InChI-Key>  (248) 
YCXXSERNLQPDHF-OAHLLOKOSA-N

>  <Total Molweight>  (248) 
328.363

>  <cLogP>  (248) 
3.6087

>  <cLogS>  (248) 
-3.941

>  <H-Acceptors>  (248) 
5

>  <H-Donors>  (248) 
0

>  <Rotatable Bonds>  (248) 
4

>  <Polar Surface Area>  (248) 
61.83

$$$$
CDB0249
     RDKit          3D

 30 32  0  0  0  0  0  0  0  0999 V2000
   -3.4281    0.4806   -1.5975 C   0  0  0  0  0  0  0  0  0  0  0  0
   -2.7291    1.1885   -0.6890 C   0  0  0  0  0  0  0  0  0  0  0  0
   -3.3731    2.0761    0.3510 C   0  0  0  0  0  0  0  0  0  0  0  0
   -4.7635    2.2485    0.1239 O   0  0  0  0  0  0  0  0  0  0  0  0
   -1.2081    1.1683   -0.6152 C   0  0  0  0  0  0  0  0  0  0  0  0
   -0.6739    0.4625    0.6476 C   0  0  0  0  0  0  0  0  0  0  0  0
    0.5519   -0.1431    0.0849 C   0  0  0  0  0  0  0  0  0  0  0  0
    0.4968   -0.0990   -1.2959 C   0  0  0  0  0  0  0  0  0  0  0  0
   -0.6248    0.5185   -1.7820 O   0  0  0  0  0  0  0  0  0  0  0  0
    1.4841   -0.6529   -2.0879 C   0  0  0  0  0  0  0  0  0  0  0  0
    2.5742   -1.2631   -1.4561 C   0  0  0  0  0  0  0  0  0  0  0  0
    2.6467   -1.3137   -0.0530 C   0  0  0  0  0  0  0  0  0  0  0  0
    1.6211   -0.7518    0.7105 C   0  0  0  0  0  0  0  0  0  0  0  0
    1.6447   -0.7927    2.1126 O   0  0  0  0  0  0  0  0  0  0  0  0
    2.6993   -1.3895    2.7898 C   0  0  0  0  0  0  0  0  0  0  0  0
    2.7504   -1.4342    4.0135 O   0  0  0  0  0  0  0  0  0  0  0  0
    3.7758   -1.9760    1.9713 C   0  0  0  0  0  0  0  0  0  0  0  0
    3.7609   -1.9457    0.6351 C   0  0  0  0  0  0  0  0  0  0  0  0
   -4.5136    0.4848   -1.6217 H   0  0  0  0  0  0  0  0  0  0  0  0
   -2.9356   -0.1517   -2.3310 H   0  0  0  0  0  0  0  0  0  0  0  0
   -2.9120    3.0693    0.3465 H   0  0  0  0  0  0  0  0  0  0  0  0
   -3.2466    1.6438    1.3484 H   0  0  0  0  0  0  0  0  0  0  0  0
   -4.8537    2.6455   -0.7592 H   0  0  0  0  0  0  0  0  0  0  0  0
   -0.8454    2.2063   -0.6443 H   0  0  0  0  0  0  0  0  0  0  0  0
   -0.4729    1.1771    1.4510 H   0  0  0  0  0  0  0  0  0  0  0  0
   -1.3499   -0.3210    1.0072 H   0  0  0  0  0  0  0  0  0  0  0  0
    1.4136   -0.6126   -3.1698 H   0  0  0  0  0  0  0  0  0  0  0  0
    3.3605   -1.7008   -2.0668 H   0  0  0  0  0  0  0  0  0  0  0  0
    4.5863   -2.4372    2.5225 H   0  0  0  0  0  0  0  0  0  0  0  0
    4.5639   -2.3848    0.0535 H   0  0  0  0  0  0  0  0  0  0  0  0
  1  2  2  0
  2  3  1  0
  3  4  1  0
  2  5  1  0
  5  6  1  0
  6  7  1  0
  7  8  2  0
  8  9  1  0
  8 10  1  0
 10 11  2  0
 11 12  1  0
 12 13  2  0
 13 14  1  0
 14 15  1  0
 15 16  2  0
 15 17  1  0
 17 18  2  0
  9  5  1  0
 13  7  1  0
 18 12  1  0
  1 19  1  0
  1 20  1  0
  3 21  1  0
  3 22  1  0
  4 23  1  0
  5 24  1  0
  6 25  1  0
  6 26  1  0
 10 27  1  0
 11 28  1  0
 17 29  1  0
 18 30  1  0
M  END
>  <Name>  (249) 
Sachalinin

>  <PubChem ID>  (249) 
14490542

>  <CDB ID>  (249) 
CDB0249

>  <Smiles>  (249) 
C=C(CO)C1CC2=C(O1)C=CC3=C2OC(=O)C=C3

>  <Chemical class>  (249) 
7-Oxygenated Coumarins

>  <Natural source>  (249) 
Angelica sachalinensis

>  <Molecular Formula>  (249) 
C14H12O4

>  <InChI-Key>  (249) 
ARAUKEDJUANTKU-GFCCVEGCSA-N

>  <Total Molweight>  (249) 
244.245

>  <cLogP>  (249) 
1.9965

>  <cLogS>  (249) 
-2.941

>  <H-Acceptors>  (249) 
4

>  <H-Donors>  (249) 
1

>  <Rotatable Bonds>  (249) 
2

>  <Polar Surface Area>  (249) 
55.76

$$$$
CDB0250
     RDKit          3D

 33 35  0  0  0  0  0  0  0  0999 V2000
   -3.9027   -1.0841    0.0731 C   0  0  0  0  0  0  0  0  0  0  0  0
   -2.7841   -0.0336    0.0462 C   0  0  0  0  0  0  0  0  0  0  0  0
   -2.2347    0.1295    1.4691 C   0  0  0  0  0  0  0  0  0  0  0  0
   -1.7051   -0.4372   -1.0008 C   0  0  0  0  0  0  0  0  0  0  0  0
   -0.5881    0.6017   -1.2837 C   0  0  0  0  0  0  0  0  0  0  0  0
    0.5536   -0.0619   -0.6129 C   0  0  0  0  0  0  0  0  0  0  0  0
    0.2125   -1.3678   -0.3093 C   0  0  0  0  0  0  0  0  0  0  0  0
   -1.0759   -1.7012   -0.6329 O   0  0  0  0  0  0  0  0  0  0  0  0
    1.1088   -2.2451    0.2719 C   0  0  0  0  0  0  0  0  0  0  0  0
    2.3967   -1.7814    0.5634 C   0  0  0  0  0  0  0  0  0  0  0  0
    2.7608   -0.4582    0.2622 C   0  0  0  0  0  0  0  0  0  0  0  0
    1.8277    0.3929   -0.3333 C   0  0  0  0  0  0  0  0  0  0  0  0
    2.1528    1.7181   -0.6632 O   0  0  0  0  0  0  0  0  0  0  0  0
    3.4177    2.2287   -0.3992 C   0  0  0  0  0  0  0  0  0  0  0  0
    3.7216    3.3832   -0.6738 O   0  0  0  0  0  0  0  0  0  0  0  0
    4.3899    1.3197    0.2323 C   0  0  0  0  0  0  0  0  0  0  0  0
    4.0911    0.0554    0.5469 C   0  0  0  0  0  0  0  0  0  0  0  0
   -0.8584    1.9048   -0.7918 O   0  0  0  0  0  0  0  0  0  0  0  0
   -3.3989    1.2049   -0.3371 O   0  0  0  0  0  0  0  0  0  0  0  0
   -3.5369   -2.0645    0.3946 H   0  0  0  0  0  0  0  0  0  0  0  0
   -4.7093   -0.7781    0.7496 H   0  0  0  0  0  0  0  0  0  0  0  0
   -4.3593   -1.1913   -0.9176 H   0  0  0  0  0  0  0  0  0  0  0  0
   -3.0294    0.4506    2.1529 H   0  0  0  0  0  0  0  0  0  0  0  0
   -1.4658    0.9064    1.5211 H   0  0  0  0  0  0  0  0  0  0  0  0
   -1.8126   -0.8036    1.8551 H   0  0  0  0  0  0  0  0  0  0  0  0
   -2.2208   -0.6103   -1.9560 H   0  0  0  0  0  0  0  0  0  0  0  0
   -0.3934    0.6640   -2.3607 H   0  0  0  0  0  0  0  0  0  0  0  0
    0.8164   -3.2651    0.4997 H   0  0  0  0  0  0  0  0  0  0  0  0
    3.1102   -2.4608    1.0246 H   0  0  0  0  0  0  0  0  0  0  0  0
    5.3689    1.7404    0.4282 H   0  0  0  0  0  0  0  0  0  0  0  0
    4.8232   -0.5961    1.0115 H   0  0  0  0  0  0  0  0  0  0  0  0
   -0.0044    2.3780   -0.7690 H   0  0  0  0  0  0  0  0  0  0  0  0
   -2.6720    1.8621   -0.4026 H   0  0  0  0  0  0  0  0  0  0  0  0
  1  2  1  0
  2  3  1  0
  2  4  1  0
  4  5  1  0
  5  6  1  0
  6  7  2  0
  7  8  1  0
  7  9  1  0
  9 10  2  0
 10 11  1  0
 11 12  2  0
 12 13  1  0
 13 14  1  0
 14 15  2  0
 14 16  1  0
 16 17  2  0
  5 18  1  0
  2 19  1  0
  8  4  1  0
 12  6  1  0
 17 11  1  0
  1 20  1  0
  1 21  1  0
  1 22  1  0
  3 23  1  0
  3 24  1  0
  3 25  1  0
  4 26  1  0
  5 27  1  0
  9 28  1  0
 10 29  1  0
 16 30  1  0
 17 31  1  0
 18 32  1  0
 19 33  1  0
M  END
>  <Name>  (250) 
Vaginidiol

>  <PubChem ID>  (250) 
11817856

>  <CDB ID>  (250) 
CDB0250

>  <Smiles>  (250) 
CC(C)(C1C(C2=C(O1)C=CC3=C2OC(=O)C=C3)O)O

>  <Chemical class>  (250) 
7-Oxygenated Coumarins

>  <Natural source>  (250) 
Selinurn vaginaturn

>  <Molecular Formula>  (250) 
C14H14O5

>  <InChI-Key>  (250) 
DQISGWRLCDLKJI-UHFFFAOYSA-N

>  <Total Molweight>  (250) 
262.26

>  <cLogP>  (250) 
1.1351

>  <cLogS>  (250) 
-2.547

>  <H-Acceptors>  (250) 
5

>  <H-Donors>  (250) 
2

>  <Rotatable Bonds>  (250) 
1

>  <Polar Surface Area>  (250) 
75.99

$$$$
CDB0251
     RDKit          3D

 47 49  0  0  0  0  0  0  0  0999 V2000
    5.4952    1.1602    0.2176 C   0  0  0  0  0  0  0  0  0  0  0  0
    4.3526    0.1527    0.0782 C   0  0  0  0  0  0  0  0  0  0  0  0
    4.4060   -0.8544    1.2300 C   0  0  0  0  0  0  0  0  0  0  0  0
    3.0046    0.8882    0.0381 C   0  0  0  0  0  0  0  0  0  0  0  0
    1.8599   -0.0042   -0.3844 C   0  0  0  0  0  0  0  0  0  0  0  0
    1.9641   -1.0419   -1.0212 O   0  0  0  0  0  0  0  0  0  0  0  0
    0.6821    0.5297    0.0337 O   0  0  0  0  0  0  0  0  0  0  0  0
   -0.4896   -0.1928   -0.3805 C   0  0  0  0  0  0  0  0  0  0  0  0
   -0.7196   -1.4753    0.4636 C   0  0  0  0  0  0  0  0  0  0  0  0
   -1.6242   -1.1325    1.5703 O   0  0  0  0  0  0  0  0  0  0  0  0
   -2.2125    0.0433    1.1933 C   0  0  0  0  0  0  0  0  0  0  0  0
   -1.6463    0.6175    0.0719 C   0  0  0  0  0  0  0  0  0  0  0  0
   -2.1515    1.8061   -0.4188 C   0  0  0  0  0  0  0  0  0  0  0  0
   -3.2347    2.4182    0.2152 C   0  0  0  0  0  0  0  0  0  0  0  0
   -3.7970    1.8211    1.3566 C   0  0  0  0  0  0  0  0  0  0  0  0
   -3.2788    0.6207    1.8560 C   0  0  0  0  0  0  0  0  0  0  0  0
   -3.7448    3.6674   -0.3266 C   0  0  0  0  0  0  0  0  0  0  0  0
   -3.1623    4.2028   -1.4038 C   0  0  0  0  0  0  0  0  0  0  0  0
   -2.0100    3.5762   -2.0762 C   0  0  0  0  0  0  0  0  0  0  0  0
   -1.4943    4.1049   -3.0542 O   0  0  0  0  0  0  0  0  0  0  0  0
   -1.5488    2.3773   -1.5503 O   0  0  0  0  0  0  0  0  0  0  0  0
   -1.3326   -2.6736   -0.3235 C   0  0  0  0  0  0  0  0  0  0  0  0
   -0.3861   -3.1833   -1.4140 C   0  0  0  0  0  0  0  0  0  0  0  0
   -1.6724   -3.8351    0.6226 C   0  0  0  0  0  0  0  0  0  0  0  0
   -2.5485   -2.2824   -0.9759 O   0  0  0  0  0  0  0  0  0  0  0  0
    5.4048    1.7392    1.1430 H   0  0  0  0  0  0  0  0  0  0  0  0
    5.4992    1.8624   -0.6229 H   0  0  0  0  0  0  0  0  0  0  0  0
    6.4644    0.6503    0.2299 H   0  0  0  0  0  0  0  0  0  0  0  0
    4.4982   -0.3944   -0.8617 H   0  0  0  0  0  0  0  0  0  0  0  0
    3.6271   -1.6167    1.1294 H   0  0  0  0  0  0  0  0  0  0  0  0
    4.2710   -0.3590    2.1976 H   0  0  0  0  0  0  0  0  0  0  0  0
    5.3720   -1.3704    1.2478 H   0  0  0  0  0  0  0  0  0  0  0  0
    2.7837    1.3062    1.0278 H   0  0  0  0  0  0  0  0  0  0  0  0
    3.0440    1.7143   -0.6815 H   0  0  0  0  0  0  0  0  0  0  0  0
   -0.4920   -0.3454   -1.4639 H   0  0  0  0  0  0  0  0  0  0  0  0
    0.2158   -1.8034    0.9338 H   0  0  0  0  0  0  0  0  0  0  0  0
   -4.6377    2.2862    1.8664 H   0  0  0  0  0  0  0  0  0  0  0  0
   -3.7028    0.1531    2.7386 H   0  0  0  0  0  0  0  0  0  0  0  0
   -4.5908    4.1479    0.1521 H   0  0  0  0  0  0  0  0  0  0  0  0
   -3.5101    5.1323   -1.8381 H   0  0  0  0  0  0  0  0  0  0  0  0
   -0.8230   -4.0437   -1.9349 H   0  0  0  0  0  0  0  0  0  0  0  0
   -0.2123   -2.4283   -2.1868 H   0  0  0  0  0  0  0  0  0  0  0  0
    0.5784   -3.4908   -0.9975 H   0  0  0  0  0  0  0  0  0  0  0  0
   -2.4329   -3.5469    1.3566 H   0  0  0  0  0  0  0  0  0  0  0  0
   -2.0974   -4.6783    0.0656 H   0  0  0  0  0  0  0  0  0  0  0  0
   -0.7855   -4.1871    1.1594 H   0  0  0  0  0  0  0  0  0  0  0  0
   -3.1847   -2.0385   -0.2785 H   0  0  0  0  0  0  0  0  0  0  0  0
  1  2  1  0
  2  3  1  0
  2  4  1  0
  4  5  1  0
  5  6  2  0
  5  7  1  0
  7  8  1  0
  8  9  1  0
  9 10  1  0
 10 11  1  0
 11 12  2  0
 12 13  1  0
 13 14  2  0
 14 15  1  0
 15 16  2  0
 14 17  1  0
 17 18  2  0
 18 19  1  0
 19 20  2  0
 19 21  1  0
  9 22  1  0
 22 23  1  0
 22 24  1  0
 22 25  1  0
 12  8  1  0
 16 11  1  0
 21 13  1  0
  1 26  1  0
  1 27  1  0
  1 28  1  0
  2 29  1  0
  3 30  1  0
  3 31  1  0
  3 32  1  0
  4 33  1  0
  4 34  1  0
  8 35  1  0
  9 36  1  0
 15 37  1  0
 16 38  1  0
 17 39  1  0
 18 40  1  0
 23 41  1  0
 23 42  1  0
 23 43  1  0
 24 44  1  0
 24 45  1  0
 24 46  1  0
 25 47  1  0
M  END
>  <Name>  (251) 
Vaginidin

>  <PubChem ID>  (251) 
12299857

>  <CDB ID>  (251) 
CDB0251

>  <Smiles>  (251) 
CC(C)CC(=O)OC1C(OC2=C1C3=C(C=C2)C=CC(=O)O3)C(C)(C)O

>  <Chemical class>  (251) 
7-Oxygenated Coumarins

>  <Natural source>  (251) 
Selinurn vaginaturn

>  <Molecular Formula>  (251) 
C19H22O6

>  <InChI-Key>  (251) 
VKTNFVWVAQYYBV-UHFFFAOYSA-N

>  <Total Molweight>  (251) 
346.378

>  <cLogP>  (251) 
2.7468

>  <cLogS>  (251) 
-3.657

>  <H-Acceptors>  (251) 
6

>  <H-Donors>  (251) 
1

>  <Rotatable Bonds>  (251) 
5

>  <Polar Surface Area>  (251) 
82.06

$$$$
CDB0252
     RDKit          3D

 54 57  0  0  0  0  0  0  0  0999 V2000
    0.1618   -2.4958    1.8213 C   0  0  0  0  0  0  0  0  0  0  0  0
   -0.1562   -1.4841    0.7099 C   0  0  0  0  0  0  0  0  0  0  0  0
   -0.2956   -2.1878   -0.6508 C   0  0  0  0  0  0  0  0  0  0  0  0
    0.9209   -0.3582    0.6742 C   0  0  0  0  0  0  0  0  0  0  0  0
    2.4201   -0.7489    0.6214 C   0  0  0  0  0  0  0  0  0  0  0  0
    2.9298    0.3632   -0.2149 C   0  0  0  0  0  0  0  0  0  0  0  0
    1.8708    1.0322   -0.8014 C   0  0  0  0  0  0  0  0  0  0  0  0
    0.6425    0.5421   -0.4523 O   0  0  0  0  0  0  0  0  0  0  0  0
    2.0596    2.0869   -1.6742 C   0  0  0  0  0  0  0  0  0  0  0  0
    3.3705    2.4904   -1.9522 C   0  0  0  0  0  0  0  0  0  0  0  0
    4.4589    1.8261   -1.3618 C   0  0  0  0  0  0  0  0  0  0  0  0
    4.2240    0.7564   -0.4953 C   0  0  0  0  0  0  0  0  0  0  0  0
    5.2815    0.0491    0.0970 O   0  0  0  0  0  0  0  0  0  0  0  0
    6.6023    0.4029   -0.1493 C   0  0  0  0  0  0  0  0  0  0  0  0
    7.5421   -0.1990    0.3563 O   0  0  0  0  0  0  0  0  0  0  0  0
    6.8338    1.5406   -1.0564 C   0  0  0  0  0  0  0  0  0  0  0  0
    5.8336    2.2150   -1.6323 C   0  0  0  0  0  0  0  0  0  0  0  0
    2.6955   -1.9886   -0.0057 O   0  0  0  0  0  0  0  0  0  0  0  0
   -1.3718   -0.7850    1.0917 O   0  0  0  0  0  0  0  0  0  0  0  0
   -2.6198   -1.4340    0.9041 C   0  0  0  0  0  0  0  0  0  0  0  0
   -3.6576   -0.8478    1.8795 C   0  0  0  0  0  0  0  0  0  0  0  0
   -3.8881    0.6516    1.6204 C   0  0  0  0  0  0  0  0  0  0  0  0
   -3.3726    1.1087    0.2492 C   0  0  0  0  0  0  0  0  0  0  0  0
   -3.5904    0.0076   -0.8038 C   0  0  0  0  0  0  0  0  0  0  0  0
   -3.0963   -1.2908   -0.4371 O   0  0  0  0  0  0  0  0  0  0  0  0
   -2.9749    0.4098   -2.1547 C   0  0  0  0  0  0  0  0  0  0  0  0
   -3.6167    1.5471   -2.7242 O   0  0  0  0  0  0  0  0  0  0  0  0
   -4.0329    2.3242   -0.1398 O   0  0  0  0  0  0  0  0  0  0  0  0
   -5.2923    0.9765    1.7128 O   0  0  0  0  0  0  0  0  0  0  0  0
   -4.9197   -1.5404    1.7706 O   0  0  0  0  0  0  0  0  0  0  0  0
   -0.6347   -3.2393    1.9282 H   0  0  0  0  0  0  0  0  0  0  0  0
    0.2426   -1.9908    2.7907 H   0  0  0  0  0  0  0  0  0  0  0  0
    1.0906   -3.0419    1.6372 H   0  0  0  0  0  0  0  0  0  0  0  0
   -0.6184   -1.4909   -1.4304 H   0  0  0  0  0  0  0  0  0  0  0  0
    0.6349   -2.6542   -0.9807 H   0  0  0  0  0  0  0  0  0  0  0  0
   -1.0436   -2.9871   -0.6137 H   0  0  0  0  0  0  0  0  0  0  0  0
    0.7760    0.2787    1.5619 H   0  0  0  0  0  0  0  0  0  0  0  0
    2.8527   -0.7564    1.6269 H   0  0  0  0  0  0  0  0  0  0  0  0
    1.2104    2.5881   -2.1281 H   0  0  0  0  0  0  0  0  0  0  0  0
    3.5323    3.3218   -2.6348 H   0  0  0  0  0  0  0  0  0  0  0  0
    7.8712    1.7985   -1.2323 H   0  0  0  0  0  0  0  0  0  0  0  0
    6.0277    3.0482   -2.2989 H   0  0  0  0  0  0  0  0  0  0  0  0
    3.6241   -1.9666   -0.2992 H   0  0  0  0  0  0  0  0  0  0  0  0
   -2.5394   -2.5079    1.0996 H   0  0  0  0  0  0  0  0  0  0  0  0
   -3.3142   -0.9751    2.9123 H   0  0  0  0  0  0  0  0  0  0  0  0
   -3.3850    1.2466    2.3914 H   0  0  0  0  0  0  0  0  0  0  0  0
   -2.3039    1.3388    0.3214 H   0  0  0  0  0  0  0  0  0  0  0  0
   -4.6714   -0.0985   -0.9649 H   0  0  0  0  0  0  0  0  0  0  0  0
   -1.9073    0.6295   -2.0460 H   0  0  0  0  0  0  0  0  0  0  0  0
   -3.0554   -0.4166   -2.8689 H   0  0  0  0  0  0  0  0  0  0  0  0
   -3.7286    2.2011   -2.0006 H   0  0  0  0  0  0  0  0  0  0  0  0
   -4.8755    2.3244    0.3684 H   0  0  0  0  0  0  0  0  0  0  0  0
   -5.7243    0.1725    2.0750 H   0  0  0  0  0  0  0  0  0  0  0  0
   -5.0238   -1.7929    0.8309 H   0  0  0  0  0  0  0  0  0  0  0  0
  1  2  1  0
  2  3  1  0
  2  4  1  0
  4  5  1  0
  5  6  1  0
  6  7  2  0
  7  8  1  0
  7  9  1  0
  9 10  2  0
 10 11  1  0
 11 12  2  0
 12 13  1  0
 13 14  1  0
 14 15  2  0
 14 16  1  0
 16 17  2  0
  5 18  1  0
  2 19  1  0
 19 20  1  0
 20 21  1  0
 21 22  1  0
 22 23  1  0
 23 24  1  0
 24 25  1  0
 24 26  1  0
 26 27  1  0
 23 28  1  0
 22 29  1  0
 21 30  1  0
  8  4  1  0
 12  6  1  0
 17 11  1  0
 25 20  1  0
  1 31  1  0
  1 32  1  0
  1 33  1  0
  3 34  1  0
  3 35  1  0
  3 36  1  0
  4 37  1  0
  5 38  1  0
  9 39  1  0
 10 40  1  0
 16 41  1  0
 17 42  1  0
 18 43  1  0
 20 44  1  0
 21 45  1  0
 22 46  1  0
 23 47  1  0
 24 48  1  0
 26 49  1  0
 26 50  1  0
 27 51  1  0
 28 52  1  0
 29 53  1  0
 30 54  1  0
M  END
>  <Name>  (252) 
Apterin

>  <PubChem ID>  (252) 
57459455

>  <CDB ID>  (252) 
CDB0252

>  <Smiles>  (252) 
CC(C)(C1C(C2=C(O1)C=CC3=C2OC(=O)C=C3)O)OC4C(C(C(C(O4)CO)O)O)O

>  <Chemical class>  (252) 
7-Oxygenated Coumarins

>  <Natural source>  (252) 
Zizia aptera

>  <Molecular Formula>  (252) 
C20H24O10

>  <InChI-Key>  (252) 
ALEQYOXVXJKFOM-UHFFFAOYSA-N

>  <Total Molweight>  (252) 
424.401

>  <cLogP>  (252) 
-0.702

>  <cLogS>  (252) 
-2.247

>  <H-Acceptors>  (252) 
10

>  <H-Donors>  (252) 
5

>  <Rotatable Bonds>  (252) 
4

>  <Polar Surface Area>  (252) 
155.14

$$$$
CDB0253
     RDKit          3D

 46 48  0  0  0  0  0  0  0  0999 V2000
   -2.6731    4.1084   -0.4469 C   0  0  0  0  0  0  0  0  0  0  0  0
   -1.8188    2.9493   -0.9289 C   0  0  0  0  0  0  0  0  0  0  0  0
   -1.3006    2.1139    0.2165 C   0  0  0  0  0  0  0  0  0  0  0  0
   -1.4500    2.3643    1.4028 O   0  0  0  0  0  0  0  0  0  0  0  0
   -0.6132    1.0478   -0.2784 O   0  0  0  0  0  0  0  0  0  0  0  0
   -0.1799    0.0801    0.6804 C   0  0  0  0  0  0  0  0  0  0  0  0
    1.3072   -0.3381    0.5237 C   0  0  0  0  0  0  0  0  0  0  0  0
    1.3601   -1.4342   -0.4396 O   0  0  0  0  0  0  0  0  0  0  0  0
    0.1171   -2.0002   -0.3601 C   0  0  0  0  0  0  0  0  0  0  0  0
   -0.8099   -1.2088    0.2941 C   0  0  0  0  0  0  0  0  0  0  0  0
   -2.1114   -1.6508    0.4290 C   0  0  0  0  0  0  0  0  0  0  0  0
   -2.4815   -2.8956   -0.0859 C   0  0  0  0  0  0  0  0  0  0  0  0
   -1.5259   -3.6845   -0.7500 C   0  0  0  0  0  0  0  0  0  0  0  0
   -0.2107   -3.2301   -0.8962 C   0  0  0  0  0  0  0  0  0  0  0  0
   -3.8587   -3.3343    0.0723 C   0  0  0  0  0  0  0  0  0  0  0  0
   -4.7361   -2.5357    0.6875 C   0  0  0  0  0  0  0  0  0  0  0  0
   -4.3662   -1.2119    1.2195 C   0  0  0  0  0  0  0  0  0  0  0  0
   -5.2046   -0.5020    1.7623 O   0  0  0  0  0  0  0  0  0  0  0  0
   -3.0419   -0.8213    1.0735 O   0  0  0  0  0  0  0  0  0  0  0  0
    2.3448    0.7614    0.1684 C   0  0  0  0  0  0  0  0  0  0  0  0
    2.2613    1.9137    1.1857 C   0  0  0  0  0  0  0  0  0  0  0  0
    2.2216    1.3505   -1.2443 C   0  0  0  0  0  0  0  0  0  0  0  0
    3.6921    0.2235    0.4045 O   0  0  0  0  0  0  0  0  0  0  0  0
    4.3191   -0.5949   -0.4806 C   0  0  0  0  0  0  0  0  0  0  0  0
    3.9209   -0.9224   -1.5868 O   0  0  0  0  0  0  0  0  0  0  0  0
    5.6291   -1.0392    0.0974 C   0  0  0  0  0  0  0  0  0  0  0  0
   -3.0419    4.6898   -1.2974 H   0  0  0  0  0  0  0  0  0  0  0  0
   -2.0982    4.7777    0.2017 H   0  0  0  0  0  0  0  0  0  0  0  0
   -3.5364    3.7496    0.1235 H   0  0  0  0  0  0  0  0  0  0  0  0
   -2.4186    2.3073   -1.5827 H   0  0  0  0  0  0  0  0  0  0  0  0
   -0.9627    3.3353   -1.4918 H   0  0  0  0  0  0  0  0  0  0  0  0
   -0.3894    0.3510    1.7207 H   0  0  0  0  0  0  0  0  0  0  0  0
    1.6303   -0.7996    1.4714 H   0  0  0  0  0  0  0  0  0  0  0  0
   -1.7983   -4.6525   -1.1645 H   0  0  0  0  0  0  0  0  0  0  0  0
    0.5353   -3.8231   -1.4153 H   0  0  0  0  0  0  0  0  0  0  0  0
   -4.1549   -4.3033   -0.3137 H   0  0  0  0  0  0  0  0  0  0  0  0
   -5.7716   -2.8233    0.8235 H   0  0  0  0  0  0  0  0  0  0  0  0
    2.3561    1.5364    2.2107 H   0  0  0  0  0  0  0  0  0  0  0  0
    3.0900    2.6173    1.0402 H   0  0  0  0  0  0  0  0  0  0  0  0
    1.3283    2.4761    1.1106 H   0  0  0  0  0  0  0  0  0  0  0  0
    3.1422    1.8723   -1.5299 H   0  0  0  0  0  0  0  0  0  0  0  0
    1.4007    2.0689   -1.3215 H   0  0  0  0  0  0  0  0  0  0  0  0
    2.0416    0.5781   -1.9978 H   0  0  0  0  0  0  0  0  0  0  0  0
    5.4601   -1.5567    1.0452 H   0  0  0  0  0  0  0  0  0  0  0  0
    6.1135   -1.7348   -0.5940 H   0  0  0  0  0  0  0  0  0  0  0  0
    6.2828   -0.1753    0.2410 H   0  0  0  0  0  0  0  0  0  0  0  0
  1  2  1  0
  2  3  1  0
  3  4  2  0
  3  5  1  0
  5  6  1  0
  6  7  1  0
  7  8  1  0
  8  9  1  0
  9 10  2  0
 10 11  1  0
 11 12  2  0
 12 13  1  0
 13 14  2  0
 12 15  1  0
 15 16  2  0
 16 17  1  0
 17 18  2  0
 17 19  1  0
  7 20  1  0
 20 21  1  0
 20 22  1  0
 20 23  1  0
 23 24  1  0
 24 25  2  0
 24 26  1  0
 10  6  1  0
 14  9  1  0
 19 11  1  0
  1 27  1  0
  1 28  1  0
  1 29  1  0
  2 30  1  0
  2 31  1  0
  6 32  1  0
  7 33  1  0
 13 34  1  0
 14 35  1  0
 15 36  1  0
 16 37  1  0
 21 38  1  0
 21 39  1  0
 21 40  1  0
 22 41  1  0
 22 42  1  0
 22 43  1  0
 26 44  1  0
 26 45  1  0
 26 46  1  0
M  END
>  <Name>  (253) 
Edulisin Iv

>  <PubChem ID>  (253) 
101670869

>  <CDB ID>  (253) 
CDB0253

>  <Smiles>  (253) 
CCC(=O)OC1C(OC2=C1C3=C(C=C2)C=CC(=O)O3)C(C)(C)OC(=O)C

>  <Chemical class>  (253) 
7-Oxygenated Coumarins

>  <Natural source>  (253) 
Angelica edulis

>  <Molecular Formula>  (253) 
C19H20O7

>  <InChI-Key>  (253) 
YPBNKPNGOBYSJH-UHFFFAOYSA-N

>  <Total Molweight>  (253) 
360.361

>  <cLogP>  (253) 
2.5587

>  <cLogS>  (253) 
-3.637

>  <H-Acceptors>  (253) 
7

>  <H-Donors>  (253) 
0

>  <Rotatable Bonds>  (253) 
6

>  <Polar Surface Area>  (253) 
88.13

$$$$
CDB0254
     RDKit          3D

 49 51  0  0  0  0  0  0  0  0999 V2000
   -3.4698   -1.7492    1.5558 C   0  0  0  0  0  0  0  0  0  0  0  0
   -3.6402   -0.9045    0.2986 C   0  0  0  0  0  0  0  0  0  0  0  0
   -4.7001   -1.5027   -0.6222 C   0  0  0  0  0  0  0  0  0  0  0  0
   -2.3101   -0.7847   -0.4198 C   0  0  0  0  0  0  0  0  0  0  0  0
   -1.9909   -1.3968   -1.4286 O   0  0  0  0  0  0  0  0  0  0  0  0
   -1.5063    0.0998    0.2302 O   0  0  0  0  0  0  0  0  0  0  0  0
   -0.2064    0.2688   -0.3551 C   0  0  0  0  0  0  0  0  0  0  0  0
    0.7915   -0.8037    0.1584 C   0  0  0  0  0  0  0  0  0  0  0  0
    1.5795   -0.2199    1.2523 O   0  0  0  0  0  0  0  0  0  0  0  0
    1.3478    1.1252    1.1813 C   0  0  0  0  0  0  0  0  0  0  0  0
    0.3755    1.4814    0.2682 C   0  0  0  0  0  0  0  0  0  0  0  0
    0.0560    2.8144    0.0929 C   0  0  0  0  0  0  0  0  0  0  0  0
    0.7159    3.7949    0.8363 C   0  0  0  0  0  0  0  0  0  0  0  0
    1.7006    3.4143    1.7634 C   0  0  0  0  0  0  0  0  0  0  0  0
    2.0208    2.0635    1.9409 C   0  0  0  0  0  0  0  0  0  0  0  0
    0.3544    5.1880    0.6298 C   0  0  0  0  0  0  0  0  0  0  0  0
   -0.5978    5.4957   -0.2562 C   0  0  0  0  0  0  0  0  0  0  0  0
   -1.3063    4.4725   -1.0458 C   0  0  0  0  0  0  0  0  0  0  0  0
   -2.1756    4.7927   -1.8480 O   0  0  0  0  0  0  0  0  0  0  0  0
   -0.9392    3.1498   -0.8384 O   0  0  0  0  0  0  0  0  0  0  0  0
    1.7719   -1.3800   -0.9144 C   0  0  0  0  0  0  0  0  0  0  0  0
    1.0448   -2.1274   -2.0425 C   0  0  0  0  0  0  0  0  0  0  0  0
    2.6441   -0.2851   -1.5571 C   0  0  0  0  0  0  0  0  0  0  0  0
    2.7543   -2.2750   -0.2988 O   0  0  0  0  0  0  0  0  0  0  0  0
    2.3595   -3.3870    0.3729 C   0  0  0  0  0  0  0  0  0  0  0  0
    1.2095   -3.7745    0.5127 O   0  0  0  0  0  0  0  0  0  0  0  0
    3.5581   -4.0939    0.9282 C   0  0  0  0  0  0  0  0  0  0  0  0
   -2.7378   -1.2995    2.2355 H   0  0  0  0  0  0  0  0  0  0  0  0
   -4.4176   -1.8423    2.0960 H   0  0  0  0  0  0  0  0  0  0  0  0
   -3.1137   -2.7564    1.3119 H   0  0  0  0  0  0  0  0  0  0  0  0
   -3.9669    0.1067    0.5712 H   0  0  0  0  0  0  0  0  0  0  0  0
   -5.6744   -1.5362   -0.1236 H   0  0  0  0  0  0  0  0  0  0  0  0
   -4.4385   -2.5226   -0.9254 H   0  0  0  0  0  0  0  0  0  0  0  0
   -4.8064   -0.9041   -1.5335 H   0  0  0  0  0  0  0  0  0  0  0  0
   -0.2629    0.3591   -1.4444 H   0  0  0  0  0  0  0  0  0  0  0  0
    0.2278   -1.6209    0.6195 H   0  0  0  0  0  0  0  0  0  0  0  0
    2.2233    4.1627    2.3546 H   0  0  0  0  0  0  0  0  0  0  0  0
    2.7794    1.7569    2.6537 H   0  0  0  0  0  0  0  0  0  0  0  0
    0.8615    5.9583    1.2003 H   0  0  0  0  0  0  0  0  0  0  0  0
   -0.8983    6.5204   -0.4384 H   0  0  0  0  0  0  0  0  0  0  0  0
    0.4811   -1.4464   -2.6873 H   0  0  0  0  0  0  0  0  0  0  0  0
    1.7593   -2.6741   -2.6689 H   0  0  0  0  0  0  0  0  0  0  0  0
    0.3450   -2.8713   -1.6499 H   0  0  0  0  0  0  0  0  0  0  0  0
    3.2701    0.2164   -0.8113 H   0  0  0  0  0  0  0  0  0  0  0  0
    3.3413   -0.7255   -2.2806 H   0  0  0  0  0  0  0  0  0  0  0  0
    2.0490    0.4675   -2.0826 H   0  0  0  0  0  0  0  0  0  0  0  0
    3.2330   -4.9823    1.4774 H   0  0  0  0  0  0  0  0  0  0  0  0
    4.0905   -3.4345    1.6182 H   0  0  0  0  0  0  0  0  0  0  0  0
    4.2136   -4.4087    0.1124 H   0  0  0  0  0  0  0  0  0  0  0  0
  1  2  1  0
  2  3  1  0
  2  4  1  0
  4  5  2  0
  4  6  1  0
  6  7  1  0
  7  8  1  0
  8  9  1  0
  9 10  1  0
 10 11  2  0
 11 12  1  0
 12 13  2  0
 13 14  1  0
 14 15  2  0
 13 16  1  0
 16 17  2  0
 17 18  1  0
 18 19  2  0
 18 20  1  0
  8 21  1  0
 21 22  1  0
 21 23  1  0
 21 24  1  0
 24 25  1  0
 25 26  2  0
 25 27  1  0
 11  7  1  0
 15 10  1  0
 20 12  1  0
  1 28  1  0
  1 29  1  0
  1 30  1  0
  2 31  1  0
  3 32  1  0
  3 33  1  0
  3 34  1  0
  7 35  1  0
  8 36  1  0
 14 37  1  0
 15 38  1  0
 16 39  1  0
 17 40  1  0
 22 41  1  0
 22 42  1  0
 22 43  1  0
 23 44  1  0
 23 45  1  0
 23 46  1  0
 27 47  1  0
 27 48  1  0
 27 49  1  0
M  END
>  <Name>  (254) 
Cniforin A

>  <PubChem ID>  (254) 
15553295

>  <CDB ID>  (254) 
CDB0254

>  <Smiles>  (254) 
CC(C)C(=O)OC1C(OC2=C1C3=C(C=C2)C=CC(=O)O3)C(C)(C)OC(=O)C

>  <Chemical class>  (254) 
7-Oxygenated Coumarins

>  <Natural source>  (254) 
Cnidium japonicum

>  <Molecular Formula>  (254) 
C20H22O7

>  <InChI-Key>  (254) 
GUWOWSAGEMNEHI-UHFFFAOYSA-N

>  <Total Molweight>  (254) 
374.388

>  <cLogP>  (254) 
2.777

>  <cLogS>  (254) 
-3.797

>  <H-Acceptors>  (254) 
7

>  <H-Donors>  (254) 
0

>  <Rotatable Bonds>  (254) 
6

>  <Polar Surface Area>  (254) 
88.13

$$$$
CDB0255
     RDKit          3D

 52 54  0  0  0  0  0  0  0  0999 V2000
    5.1205   -2.5396    0.8966 C   0  0  0  0  0  0  0  0  0  0  0  0
    3.9059   -2.1976    0.0461 C   0  0  0  0  0  0  0  0  0  0  0  0
    3.2375   -0.8730    0.4455 C   0  0  0  0  0  0  0  0  0  0  0  0
    4.1171    0.3429    0.1693 C   0  0  0  0  0  0  0  0  0  0  0  0
    1.9267   -0.7068   -0.3023 C   0  0  0  0  0  0  0  0  0  0  0  0
    1.6656   -1.1967   -1.3914 O   0  0  0  0  0  0  0  0  0  0  0  0
    1.0818    0.0893    0.4066 O   0  0  0  0  0  0  0  0  0  0  0  0
   -0.1800    0.3399   -0.2297 C   0  0  0  0  0  0  0  0  0  0  0  0
   -1.2155   -0.7682    0.0995 C   0  0  0  0  0  0  0  0  0  0  0  0
   -2.0704   -0.2958    1.1971 O   0  0  0  0  0  0  0  0  0  0  0  0
   -1.8204    1.0443    1.2943 C   0  0  0  0  0  0  0  0  0  0  0  0
   -0.7867    1.4837    0.4918 C   0  0  0  0  0  0  0  0  0  0  0  0
   -0.4386    2.8210    0.4932 C   0  0  0  0  0  0  0  0  0  0  0  0
   -1.1332    3.7231    1.3014 C   0  0  0  0  0  0  0  0  0  0  0  0
   -2.1820    3.2588    2.1128 C   0  0  0  0  0  0  0  0  0  0  0  0
   -2.5300    1.9031    2.1124 C   0  0  0  0  0  0  0  0  0  0  0  0
   -0.7395    5.1226    1.2820 C   0  0  0  0  0  0  0  0  0  0  0  0
    0.2755    5.5093    0.5031 C   0  0  0  0  0  0  0  0  0  0  0  0
    1.0225    4.5685   -0.3508 C   0  0  0  0  0  0  0  0  0  0  0  0
    1.9507    4.9592   -1.0490 O   0  0  0  0  0  0  0  0  0  0  0  0
    0.6219    3.2396   -0.3254 O   0  0  0  0  0  0  0  0  0  0  0  0
   -2.1276   -1.2114   -1.0903 C   0  0  0  0  0  0  0  0  0  0  0  0
   -2.9515   -0.0418   -1.6614 C   0  0  0  0  0  0  0  0  0  0  0  0
   -1.3334   -1.8385   -2.2461 C   0  0  0  0  0  0  0  0  0  0  0  0
   -3.1519   -2.1568   -0.6408 O   0  0  0  0  0  0  0  0  0  0  0  0
   -2.8063   -3.3414   -0.0743 C   0  0  0  0  0  0  0  0  0  0  0  0
   -1.6695   -3.7562    0.0922 O   0  0  0  0  0  0  0  0  0  0  0  0
   -4.0413   -4.0908    0.3230 C   0  0  0  0  0  0  0  0  0  0  0  0
    5.9305   -1.8199    0.7474 H   0  0  0  0  0  0  0  0  0  0  0  0
    5.5024   -3.5288    0.6244 H   0  0  0  0  0  0  0  0  0  0  0  0
    4.8632   -2.5575    1.9603 H   0  0  0  0  0  0  0  0  0  0  0  0
    3.1772   -3.0130    0.1404 H   0  0  0  0  0  0  0  0  0  0  0  0
    4.2026   -2.1706   -1.0099 H   0  0  0  0  0  0  0  0  0  0  0  0
    3.0019   -0.9201    1.5167 H   0  0  0  0  0  0  0  0  0  0  0  0
    5.0255    0.3252    0.7785 H   0  0  0  0  0  0  0  0  0  0  0  0
    4.4110    0.3869   -0.8853 H   0  0  0  0  0  0  0  0  0  0  0  0
    3.5851    1.2731    0.3985 H   0  0  0  0  0  0  0  0  0  0  0  0
   -0.0595    0.5525   -1.2965 H   0  0  0  0  0  0  0  0  0  0  0  0
   -0.6879   -1.6379    0.5040 H   0  0  0  0  0  0  0  0  0  0  0  0
   -2.7328    3.9449    2.7522 H   0  0  0  0  0  0  0  0  0  0  0  0
   -3.3372    1.5322    2.7357 H   0  0  0  0  0  0  0  0  0  0  0  0
   -1.2738    5.8331    1.9031 H   0  0  0  0  0  0  0  0  0  0  0  0
    0.6020    6.5414    0.4616 H   0  0  0  0  0  0  0  0  0  0  0  0
   -2.3204    0.7572   -2.0614 H   0  0  0  0  0  0  0  0  0  0  0  0
   -3.6214    0.3817   -0.9053 H   0  0  0  0  0  0  0  0  0  0  0  0
   -3.6031   -0.3912   -2.4718 H   0  0  0  0  0  0  0  0  0  0  0  0
   -0.7288   -1.0967   -2.7767 H   0  0  0  0  0  0  0  0  0  0  0  0
   -0.6612   -2.6269   -1.8945 H   0  0  0  0  0  0  0  0  0  0  0  0
   -2.0087   -2.3071   -2.9714 H   0  0  0  0  0  0  0  0  0  0  0  0
   -4.6457   -4.3049   -0.5619 H   0  0  0  0  0  0  0  0  0  0  0  0
   -4.6127   -3.5055    1.0479 H   0  0  0  0  0  0  0  0  0  0  0  0
   -3.7563   -5.0385    0.7888 H   0  0  0  0  0  0  0  0  0  0  0  0
  1  2  1  0
  2  3  1  0
  3  4  1  0
  3  5  1  0
  5  6  2  0
  5  7  1  0
  7  8  1  0
  8  9  1  0
  9 10  1  0
 10 11  1  0
 11 12  2  0
 12 13  1  0
 13 14  2  0
 14 15  1  0
 15 16  2  0
 14 17  1  0
 17 18  2  0
 18 19  1  0
 19 20  2  0
 19 21  1  0
  9 22  1  0
 22 23  1  0
 22 24  1  0
 22 25  1  0
 25 26  1  0
 26 27  2  0
 26 28  1  0
 12  8  1  0
 16 11  1  0
 21 13  1  0
  1 29  1  0
  1 30  1  0
  1 31  1  0
  2 32  1  0
  2 33  1  0
  3 34  1  0
  4 35  1  0
  4 36  1  0
  4 37  1  0
  8 38  1  0
  9 39  1  0
 15 40  1  0
 16 41  1  0
 17 42  1  0
 18 43  1  0
 23 44  1  0
 23 45  1  0
 23 46  1  0
 24 47  1  0
 24 48  1  0
 24 49  1  0
 28 50  1  0
 28 51  1  0
 28 52  1  0
M  END
>  <Name>  (255) 
Edulisin Iii

>  <PubChem ID>  (255) 
91736606

>  <CDB ID>  (255) 
CDB0255

>  <Smiles>  (255) 
CCC(C)C(=O)OC1C(OC2=C1C3=C(C=C2)C=CC(=O)O3)C(C)(C)OC(=O)C

>  <Chemical class>  (255) 
7-Oxygenated Coumarins

>  <Natural source>  (255) 
Angelica edulis

>  <Molecular Formula>  (255) 
C21H24O7

>  <InChI-Key>  (255) 
UBLBUWKMSDCDLT-UHFFFAOYSA-N

>  <Total Molweight>  (255) 
388.415

>  <cLogP>  (255) 
3.2314

>  <cLogS>  (255) 
-4.067

>  <H-Acceptors>  (255) 
7

>  <H-Donors>  (255) 
0

>  <Rotatable Bonds>  (255) 
7

>  <Polar Surface Area>  (255) 
88.13

$$$$
CDB0256
     RDKit          3D

 50 52  0  0  0  0  0  0  0  0999 V2000
    5.6149   -2.1149   -1.5183 C   0  0  0  0  0  0  0  0  0  0  0  0
    4.1417   -1.8594   -1.5235 C   0  0  0  0  0  0  0  0  0  0  0  0
    3.4721   -0.8585   -0.9164 C   0  0  0  0  0  0  0  0  0  0  0  0
    4.0835    0.2525   -0.1154 C   0  0  0  0  0  0  0  0  0  0  0  0
    1.9858   -0.8537   -1.0836 C   0  0  0  0  0  0  0  0  0  0  0  0
    1.3638   -1.5887   -1.8349 O   0  0  0  0  0  0  0  0  0  0  0  0
    1.4256    0.0715   -0.2702 O   0  0  0  0  0  0  0  0  0  0  0  0
   -0.0001    0.1949   -0.3868 C   0  0  0  0  0  0  0  0  0  0  0  0
   -0.7514   -0.9140    0.3968 C   0  0  0  0  0  0  0  0  0  0  0  0
   -1.0822   -0.3845    1.7292 O   0  0  0  0  0  0  0  0  0  0  0  0
   -0.9377    0.9705    1.6187 C   0  0  0  0  0  0  0  0  0  0  0  0
   -0.3654    1.3775    0.4299 C   0  0  0  0  0  0  0  0  0  0  0  0
   -0.1692    2.7239    0.1896 C   0  0  0  0  0  0  0  0  0  0  0  0
   -0.5543    3.6670    1.1445 C   0  0  0  0  0  0  0  0  0  0  0  0
   -1.1340    3.2350    2.3494 C   0  0  0  0  0  0  0  0  0  0  0  0
   -1.3262    1.8703    2.5929 C   0  0  0  0  0  0  0  0  0  0  0  0
   -0.3340    5.0761    0.8612 C   0  0  0  0  0  0  0  0  0  0  0  0
    0.2370    5.4329   -0.2933 C   0  0  0  0  0  0  0  0  0  0  0  0
    0.6584    4.4492   -1.3066 C   0  0  0  0  0  0  0  0  0  0  0  0
    1.1873    4.8137   -2.3502 O   0  0  0  0  0  0  0  0  0  0  0  0
    0.4257    3.1106   -1.0212 O   0  0  0  0  0  0  0  0  0  0  0  0
   -2.0590   -1.4723   -0.2666 C   0  0  0  0  0  0  0  0  0  0  0  0
   -1.7329   -2.1324   -1.6145 C   0  0  0  0  0  0  0  0  0  0  0  0
   -3.1321   -0.3843   -0.4326 C   0  0  0  0  0  0  0  0  0  0  0  0
   -2.5218   -2.5025    0.6698 O   0  0  0  0  0  0  0  0  0  0  0  0
   -3.6644   -3.2049    0.4658 C   0  0  0  0  0  0  0  0  0  0  0  0
   -3.8697   -4.1679    1.5956 C   0  0  0  0  0  0  0  0  0  0  0  0
   -4.4262   -3.0928   -0.4822 O   0  0  0  0  0  0  0  0  0  0  0  0
    6.1758   -1.4443   -0.8651 H   0  0  0  0  0  0  0  0  0  0  0  0
    6.0111   -2.0143   -2.5335 H   0  0  0  0  0  0  0  0  0  0  0  0
    5.8063   -3.1382   -1.1793 H   0  0  0  0  0  0  0  0  0  0  0  0
    3.5773   -2.5989   -2.0945 H   0  0  0  0  0  0  0  0  0  0  0  0
    5.1746    0.2654   -0.1597 H   0  0  0  0  0  0  0  0  0  0  0  0
    3.7460    1.2256   -0.4894 H   0  0  0  0  0  0  0  0  0  0  0  0
    3.7977    0.1654    0.9382 H   0  0  0  0  0  0  0  0  0  0  0  0
   -0.3027    0.3103   -1.4317 H   0  0  0  0  0  0  0  0  0  0  0  0
   -0.0808   -1.7615    0.5917 H   0  0  0  0  0  0  0  0  0  0  0  0
   -1.4376    3.9541    3.1069 H   0  0  0  0  0  0  0  0  0  0  0  0
   -1.7723    1.5240    3.5195 H   0  0  0  0  0  0  0  0  0  0  0  0
   -0.6350    5.8181    1.5926 H   0  0  0  0  0  0  0  0  0  0  0  0
    0.4206    6.4712   -0.5423 H   0  0  0  0  0  0  0  0  0  0  0  0
   -1.3323   -1.4183   -2.3389 H   0  0  0  0  0  0  0  0  0  0  0  0
   -1.0109   -2.9456   -1.4813 H   0  0  0  0  0  0  0  0  0  0  0  0
   -2.6181   -2.5837   -2.0731 H   0  0  0  0  0  0  0  0  0  0  0  0
   -2.7589    0.4729   -1.0009 H   0  0  0  0  0  0  0  0  0  0  0  0
   -4.0076   -0.7564   -0.9735 H   0  0  0  0  0  0  0  0  0  0  0  0
   -3.4994   -0.0368    0.5388 H   0  0  0  0  0  0  0  0  0  0  0  0
   -3.0367   -4.8743    1.6366 H   0  0  0  0  0  0  0  0  0  0  0  0
   -3.9580   -3.6208    2.5376 H   0  0  0  0  0  0  0  0  0  0  0  0
   -4.7943   -4.7286    1.4309 H   0  0  0  0  0  0  0  0  0  0  0  0
  1  2  1  0
  2  3  2  3
  3  4  1  0
  3  5  1  0
  5  6  2  0
  5  7  1  0
  7  8  1  0
  8  9  1  0
  9 10  1  0
 10 11  1  0
 11 12  2  0
 12 13  1  0
 13 14  2  0
 14 15  1  0
 15 16  2  0
 14 17  1  0
 17 18  2  0
 18 19  1  0
 19 20  2  0
 19 21  1  0
  9 22  1  0
 22 23  1  0
 22 24  1  0
 22 25  1  0
 25 26  1  0
 26 27  1  0
 26 28  2  0
 12  8  1  0
 21 13  1  0
 16 11  1  0
  1 29  1  0
  1 30  1  0
  1 31  1  0
  2 32  1  0
  4 33  1  0
  4 34  1  0
  4 35  1  0
  8 36  1  0
  9 37  1  0
 15 38  1  0
 16 39  1  0
 17 40  1  0
 18 41  1  0
 23 42  1  0
 23 43  1  0
 23 44  1  0
 24 45  1  0
 24 46  1  0
 24 47  1  0
 27 48  1  0
 27 49  1  0
 27 50  1  0
M  END
>  <Name>  (256) 
Edultin (Cnidimin)

>  <PubChem ID>  (256) 
348285972

>  <CDB ID>  (256) 
CDB0256

>  <Smiles>  (256) 
CC=C(C)C(=O)OC1C(OC2=C1C1=C(C=C2)C=CC(=O)O1)C(C)(C)OC(C)=O

>  <Chemical class>  (256) 
7-Oxygenated Coumarins

>  <Natural source>  (256) 
Angelica edulis Cnidium

>  <Molecular Formula>  (256) 
C21H22O7

>  <InChI-Key>  (256) 
FFCDTHIJWHJUQJ-UHFFFAOYSA-N

>  <Total Molweight>  (256) 
386.399

>  <cLogP>  (256) 
3.3673

>  <cLogS>  (256) 
-3.803

>  <H-Acceptors>  (256) 
7

>  <H-Donors>  (256) 
0

>  <Rotatable Bonds>  (256) 
6

>  <Polar Surface Area>  (256) 
88.13

$$$$
CDB0257
     RDKit          3D

 45 47  0  0  0  0  0  0  0  0999 V2000
    6.3362    1.3715   -1.0234 C   0  0  0  0  0  0  0  0  0  0  0  0
    4.9649    0.8073   -1.2113 C   0  0  0  0  0  0  0  0  0  0  0  0
    4.1464    0.2891   -0.2728 C   0  0  0  0  0  0  0  0  0  0  0  0
    4.4348    0.2040    1.1962 C   0  0  0  0  0  0  0  0  0  0  0  0
    2.8200   -0.2190   -0.7494 C   0  0  0  0  0  0  0  0  0  0  0  0
    2.3642   -0.0149   -1.8631 O   0  0  0  0  0  0  0  0  0  0  0  0
    2.2276   -0.9367    0.2337 O   0  0  0  0  0  0  0  0  0  0  0  0
    0.8986   -1.5191    0.0476 C   0  0  0  0  0  0  0  0  0  0  0  0
    0.9303   -2.5508   -1.0895 C   0  0  0  0  0  0  0  0  0  0  0  0
    0.6619   -2.2685    1.3734 C   0  0  0  0  0  0  0  0  0  0  0  0
   -0.1659   -0.4085   -0.1788 C   0  0  0  0  0  0  0  0  0  0  0  0
   -1.6094   -0.9256   -0.3817 C   0  0  0  0  0  0  0  0  0  0  0  0
   -2.3515    0.1816    0.2700 C   0  0  0  0  0  0  0  0  0  0  0  0
   -1.4745    0.9285    1.0380 C   0  0  0  0  0  0  0  0  0  0  0  0
   -0.1738    0.5046    0.9661 O   0  0  0  0  0  0  0  0  0  0  0  0
   -1.8973    1.9886    1.8173 C   0  0  0  0  0  0  0  0  0  0  0  0
   -3.2582    2.3146    1.8096 C   0  0  0  0  0  0  0  0  0  0  0  0
   -4.1634    1.5695    1.0347 C   0  0  0  0  0  0  0  0  0  0  0  0
   -3.6963    0.4971    0.2714 C   0  0  0  0  0  0  0  0  0  0  0  0
   -4.5688   -0.2832   -0.5034 O   0  0  0  0  0  0  0  0  0  0  0  0
   -5.9303   -0.0085   -0.5393 C   0  0  0  0  0  0  0  0  0  0  0  0
   -6.7109   -0.6755   -1.2076 O   0  0  0  0  0  0  0  0  0  0  0  0
   -6.4062    1.1301    0.2654 C   0  0  0  0  0  0  0  0  0  0  0  0
   -5.5843    1.8775    1.0085 C   0  0  0  0  0  0  0  0  0  0  0  0
   -1.9240   -1.0918   -1.7526 O   0  0  0  0  0  0  0  0  0  0  0  0
    7.0312    0.8767   -1.7096 H   0  0  0  0  0  0  0  0  0  0  0  0
    6.3320    2.4405   -1.2573 H   0  0  0  0  0  0  0  0  0  0  0  0
    6.7295    1.2437   -0.0133 H   0  0  0  0  0  0  0  0  0  0  0  0
    4.6254    0.8282   -2.2485 H   0  0  0  0  0  0  0  0  0  0  0  0
    3.6089    0.6323    1.7750 H   0  0  0  0  0  0  0  0  0  0  0  0
    5.3331    0.7517    1.4899 H   0  0  0  0  0  0  0  0  0  0  0  0
    4.5693   -0.8395    1.4995 H   0  0  0  0  0  0  0  0  0  0  0  0
    1.0003   -2.0713   -2.0706 H   0  0  0  0  0  0  0  0  0  0  0  0
    0.0315   -3.1762   -1.0940 H   0  0  0  0  0  0  0  0  0  0  0  0
    1.8038   -3.2061   -0.9960 H   0  0  0  0  0  0  0  0  0  0  0  0
    0.6816   -1.5824    2.2275 H   0  0  0  0  0  0  0  0  0  0  0  0
    1.4656   -2.9934    1.5525 H   0  0  0  0  0  0  0  0  0  0  0  0
   -0.2862   -2.8128    1.3872 H   0  0  0  0  0  0  0  0  0  0  0  0
    0.1194    0.2030   -1.0444 H   0  0  0  0  0  0  0  0  0  0  0  0
   -1.8146   -1.8597    0.1480 H   0  0  0  0  0  0  0  0  0  0  0  0
   -1.1887    2.5546    2.4132 H   0  0  0  0  0  0  0  0  0  0  0  0
   -3.6036    3.1508    2.4132 H   0  0  0  0  0  0  0  0  0  0  0  0
   -7.4706    1.3267    0.2185 H   0  0  0  0  0  0  0  0  0  0  0  0
   -5.9573    2.7114    1.5931 H   0  0  0  0  0  0  0  0  0  0  0  0
   -2.8806   -0.9400   -1.8568 H   0  0  0  0  0  0  0  0  0  0  0  0
  1  2  1  0
  2  3  2  3
  3  4  1  0
  3  5  1  0
  5  6  2  0
  5  7  1  0
  7  8  1  0
  8  9  1  0
  8 10  1  0
  8 11  1  0
 11 12  1  0
 12 13  1  0
 13 14  2  0
 14 15  1  0
 14 16  1  0
 16 17  2  0
 17 18  1  0
 18 19  2  0
 19 20  1  0
 20 21  1  0
 21 22  2  0
 21 23  1  0
 23 24  2  0
 12 25  1  0
 15 11  1  0
 19 13  1  0
 24 18  1  0
  1 26  1  0
  1 27  1  0
  1 28  1  0
  2 29  1  0
  4 30  1  0
  4 31  1  0
  4 32  1  0
  9 33  1  0
  9 34  1  0
  9 35  1  0
 10 36  1  0
 10 37  1  0
 10 38  1  0
 11 39  1  0
 12 40  1  0
 16 41  1  0
 17 42  1  0
 23 43  1  0
 24 44  1  0
 25 45  1  0
M  END
>  <Name>  (257) 
Daucoidin A

>  <PubChem ID>  (257) 
56776196

>  <CDB ID>  (257) 
CDB0257

>  <Smiles>  (257) 
CC=C(C)C(=O)OC(C)(C)C1C(C2=C(O1)C=CC3=C2OC(=O)C=C3)O

>  <Chemical class>  (257) 
7-Oxygenated Coumarins

>  <Natural source>  (257) 
Ligusticum daucoides

>  <Molecular Formula>  (257) 
C19H20O6

>  <InChI-Key>  (257) 
GZAQAICYIHWIAX-UHFFFAOYSA-N

>  <Total Molweight>  (257) 
344.362

>  <cLogP>  (257) 
2.8827

>  <cLogS>  (257) 
-3.393

>  <H-Acceptors>  (257) 
6

>  <H-Donors>  (257) 
1

>  <Rotatable Bonds>  (257) 
4

>  <Polar Surface Area>  (257) 
82.06

$$$$
CDB0258
     RDKit          3D

 59 61  0  0  0  0  0  0  0  0999 V2000
   -1.2210   -4.2141   -2.3519 C   0  0  0  0  0  0  0  0  0  0  0  0
   -0.8808   -3.3563   -1.1419 C   0  0  0  0  0  0  0  0  0  0  0  0
   -1.2932   -1.8836   -1.3024 C   0  0  0  0  0  0  0  0  0  0  0  0
   -2.8093   -1.7043   -1.3285 C   0  0  0  0  0  0  0  0  0  0  0  0
   -0.7069   -1.0471   -0.1747 C   0  0  0  0  0  0  0  0  0  0  0  0
   -0.2386   -1.4938    0.8628 O   0  0  0  0  0  0  0  0  0  0  0  0
   -0.7733    0.2746   -0.4979 O   0  0  0  0  0  0  0  0  0  0  0  0
   -0.3039    1.1783    0.5036 C   0  0  0  0  0  0  0  0  0  0  0  0
    0.9232    1.9798    0.0025 C   0  0  0  0  0  0  0  0  0  0  0  0
    0.7934    3.3560    0.4655 O   0  0  0  0  0  0  0  0  0  0  0  0
   -0.5531    3.5053    0.6647 C   0  0  0  0  0  0  0  0  0  0  0  0
   -1.2534    2.3117    0.6657 C   0  0  0  0  0  0  0  0  0  0  0  0
   -2.6188    2.3204    0.8780 C   0  0  0  0  0  0  0  0  0  0  0  0
   -3.2870    3.5310    1.0749 C   0  0  0  0  0  0  0  0  0  0  0  0
   -2.5588    4.7332    1.0718 C   0  0  0  0  0  0  0  0  0  0  0  0
   -1.1737    4.7225    0.8705 C   0  0  0  0  0  0  0  0  0  0  0  0
   -4.7255    3.5070    1.2877 C   0  0  0  0  0  0  0  0  0  0  0  0
   -5.3720    2.3370    1.2846 C   0  0  0  0  0  0  0  0  0  0  0  0
   -4.6824    1.0517    1.0748 C   0  0  0  0  0  0  0  0  0  0  0  0
   -5.3098   -0.0008    1.0585 O   0  0  0  0  0  0  0  0  0  0  0  0
   -3.3068    1.0973    0.8982 O   0  0  0  0  0  0  0  0  0  0  0  0
    2.3019    1.3837    0.4114 C   0  0  0  0  0  0  0  0  0  0  0  0
    2.4517    1.3280    1.9412 C   0  0  0  0  0  0  0  0  0  0  0  0
    3.4144    2.2565   -0.1980 C   0  0  0  0  0  0  0  0  0  0  0  0
    2.3406    0.0569   -0.1832 O   0  0  0  0  0  0  0  0  0  0  0  0
    3.3884   -0.7730    0.0318 C   0  0  0  0  0  0  0  0  0  0  0  0
    4.3892   -0.5460    0.6891 O   0  0  0  0  0  0  0  0  0  0  0  0
    3.1357   -2.0439   -0.6931 C   0  0  0  0  0  0  0  0  0  0  0  0
    3.2112   -3.2277   -0.0563 C   0  0  0  0  0  0  0  0  0  0  0  0
    3.4655   -3.4594    1.4006 C   0  0  0  0  0  0  0  0  0  0  0  0
    2.8444   -1.9193   -2.1567 C   0  0  0  0  0  0  0  0  0  0  0  0
   -2.3020   -4.2981   -2.4949 H   0  0  0  0  0  0  0  0  0  0  0  0
   -0.8259   -5.2261   -2.2164 H   0  0  0  0  0  0  0  0  0  0  0  0
   -0.7807   -3.7990   -3.2639 H   0  0  0  0  0  0  0  0  0  0  0  0
   -1.3516   -3.7869   -0.2493 H   0  0  0  0  0  0  0  0  0  0  0  0
    0.2015   -3.4153   -0.9772 H   0  0  0  0  0  0  0  0  0  0  0  0
   -0.8612   -1.5084   -2.2391 H   0  0  0  0  0  0  0  0  0  0  0  0
   -3.2666   -2.0730   -0.4038 H   0  0  0  0  0  0  0  0  0  0  0  0
   -3.2617   -2.2346   -2.1714 H   0  0  0  0  0  0  0  0  0  0  0  0
   -3.0797   -0.6476   -1.4280 H   0  0  0  0  0  0  0  0  0  0  0  0
   -0.1549    0.7224    1.4871 H   0  0  0  0  0  0  0  0  0  0  0  0
    0.8902    2.0128   -1.0987 H   0  0  0  0  0  0  0  0  0  0  0  0
   -3.0615    5.6847    1.2300 H   0  0  0  0  0  0  0  0  0  0  0  0
   -0.6007    5.6440    0.8721 H   0  0  0  0  0  0  0  0  0  0  0  0
   -5.2544    4.4406    1.4446 H   0  0  0  0  0  0  0  0  0  0  0  0
   -6.4428    2.2761    1.4366 H   0  0  0  0  0  0  0  0  0  0  0  0
    2.1664    2.2744    2.4119 H   0  0  0  0  0  0  0  0  0  0  0  0
    3.4866    1.1290    2.2382 H   0  0  0  0  0  0  0  0  0  0  0  0
    1.8516    0.5217    2.3744 H   0  0  0  0  0  0  0  0  0  0  0  0
    3.3429    2.2657   -1.2916 H   0  0  0  0  0  0  0  0  0  0  0  0
    4.4110    1.8731    0.0416 H   0  0  0  0  0  0  0  0  0  0  0  0
    3.3660    3.2888    0.1635 H   0  0  0  0  0  0  0  0  0  0  0  0
    3.0493   -4.1375   -0.6316 H   0  0  0  0  0  0  0  0  0  0  0  0
    3.4361   -2.5460    1.9995 H   0  0  0  0  0  0  0  0  0  0  0  0
    2.7001   -4.1329    1.8000 H   0  0  0  0  0  0  0  0  0  0  0  0
    4.4416   -3.9344    1.5370 H   0  0  0  0  0  0  0  0  0  0  0  0
    1.8774   -1.4333   -2.3211 H   0  0  0  0  0  0  0  0  0  0  0  0
    3.6200   -1.3256   -2.6519 H   0  0  0  0  0  0  0  0  0  0  0  0
    2.8115   -2.8963   -2.6506 H   0  0  0  0  0  0  0  0  0  0  0  0
  1  2  1  0
  2  3  1  0
  3  4  1  0
  3  5  1  0
  5  6  2  0
  5  7  1  0
  7  8  1  0
  8  9  1  0
  9 10  1  0
 10 11  1  0
 11 12  2  0
 12 13  1  0
 13 14  2  0
 14 15  1  0
 15 16  2  0
 14 17  1  0
 17 18  2  0
 18 19  1  0
 19 20  2  0
 19 21  1  0
  9 22  1  0
 22 23  1  0
 22 24  1  0
 22 25  1  0
 25 26  1  0
 26 27  2  0
 26 28  1  0
 28 29  2  3
 29 30  1  0
 28 31  1  0
 12  8  1  0
 16 11  1  0
 21 13  1  0
  1 32  1  0
  1 33  1  0
  1 34  1  0
  2 35  1  0
  2 36  1  0
  3 37  1  0
  4 38  1  0
  4 39  1  0
  4 40  1  0
  8 41  1  0
  9 42  1  0
 15 43  1  0
 16 44  1  0
 17 45  1  0
 18 46  1  0
 23 47  1  0
 23 48  1  0
 23 49  1  0
 24 50  1  0
 24 51  1  0
 24 52  1  0
 29 53  1  0
 30 54  1  0
 30 55  1  0
 30 56  1  0
 31 57  1  0
 31 58  1  0
 31 59  1  0
M  END
>  <Name>  (258) 
Edulisin V

>  <PubChem ID>  (258) 
101670870

>  <CDB ID>  (258) 
CDB0258

>  <Smiles>  (258) 
CCC(C)C(=O)OC1C(OC2=C1C3=C(C=C2)C=CC(=O)O3)C(C)(C)OC(=O)C(=CC)C

>  <Chemical class>  (258) 
7-Oxygenated Coumarins

>  <Natural source>  (258) 
Angelica edulis

>  <Molecular Formula>  (258) 
C24H28O7

>  <InChI-Key>  (258) 
OQNKRWQPITVLBZ-UHFFFAOYSA-N

>  <Total Molweight>  (258) 
428.479

>  <cLogP>  (258) 
4.4944

>  <cLogS>  (258) 
-4.503

>  <H-Acceptors>  (258) 
7

>  <H-Donors>  (258) 
0

>  <Rotatable Bonds>  (258) 
8

>  <Polar Surface Area>  (258) 
88.13

$$$$
CDB0259
     RDKit          3D

 57 59  0  0  0  0  0  0  0  0999 V2000
    0.2531   -4.5426   -1.0318 C   0  0  0  0  0  0  0  0  0  0  0  0
   -1.2029   -4.2090   -0.9307 C   0  0  0  0  0  0  0  0  0  0  0  0
   -1.7602   -3.0344   -0.5757 C   0  0  0  0  0  0  0  0  0  0  0  0
   -3.2474   -2.8335   -0.5545 C   0  0  0  0  0  0  0  0  0  0  0  0
   -0.9269   -1.8843   -0.1308 C   0  0  0  0  0  0  0  0  0  0  0  0
    0.1017   -1.9755    0.5194 O   0  0  0  0  0  0  0  0  0  0  0  0
   -1.5035   -0.7272   -0.5328 O   0  0  0  0  0  0  0  0  0  0  0  0
   -0.7430    0.4545   -0.2318 C   0  0  0  0  0  0  0  0  0  0  0  0
   -0.8614    0.8678    1.2591 C   0  0  0  0  0  0  0  0  0  0  0  0
   -1.9627    1.8308    1.3756 O   0  0  0  0  0  0  0  0  0  0  0  0
   -2.1625    2.2904    0.1035 C   0  0  0  0  0  0  0  0  0  0  0  0
   -1.4772    1.5787   -0.8615 C   0  0  0  0  0  0  0  0  0  0  0  0
   -1.5928    1.9390   -2.1903 C   0  0  0  0  0  0  0  0  0  0  0  0
   -2.3932    3.0249   -2.5511 C   0  0  0  0  0  0  0  0  0  0  0  0
   -3.0841    3.7374   -1.5560 C   0  0  0  0  0  0  0  0  0  0  0  0
   -2.9725    3.3646   -0.2118 C   0  0  0  0  0  0  0  0  0  0  0  0
   -2.4920    3.3818   -3.9572 C   0  0  0  0  0  0  0  0  0  0  0  0
   -1.8306    2.6590   -4.8663 C   0  0  0  0  0  0  0  0  0  0  0  0
   -0.9952    1.4999   -4.5036 C   0  0  0  0  0  0  0  0  0  0  0  0
   -0.4189    0.8523   -5.3700 O   0  0  0  0  0  0  0  0  0  0  0  0
   -0.9014    1.1888   -3.1543 O   0  0  0  0  0  0  0  0  0  0  0  0
    0.4181    1.4651    1.9285 C   0  0  0  0  0  0  0  0  0  0  0  0
    0.0695    1.8472    3.3866 C   0  0  0  0  0  0  0  0  0  0  0  0
    0.9523    2.7428    1.2603 C   0  0  0  0  0  0  0  0  0  0  0  0
    1.4345    0.4331    2.1054 O   0  0  0  0  0  0  0  0  0  0  0  0
    2.3576    0.1256    1.1658 C   0  0  0  0  0  0  0  0  0  0  0  0
    2.4921    0.6807    0.0871 O   0  0  0  0  0  0  0  0  0  0  0  0
    3.2278   -0.9920    1.6541 C   0  0  0  0  0  0  0  0  0  0  0  0
    4.3243   -1.2669    0.9180 C   0  0  0  0  0  0  0  0  0  0  0  0
    5.3610   -2.3134    1.1705 C   0  0  0  0  0  0  0  0  0  0  0  0
    2.7940   -1.7216    2.8903 C   0  0  0  0  0  0  0  0  0  0  0  0
    0.4292   -5.1172   -1.9473 H   0  0  0  0  0  0  0  0  0  0  0  0
    0.8986   -3.6629   -1.0831 H   0  0  0  0  0  0  0  0  0  0  0  0
    0.5569   -5.1594   -0.1809 H   0  0  0  0  0  0  0  0  0  0  0  0
   -1.8634   -5.0292   -1.2087 H   0  0  0  0  0  0  0  0  0  0  0  0
   -3.7892   -3.7730   -0.7079 H   0  0  0  0  0  0  0  0  0  0  0  0
   -3.5560   -2.1413   -1.3448 H   0  0  0  0  0  0  0  0  0  0  0  0
   -3.5666   -2.4275    0.4113 H   0  0  0  0  0  0  0  0  0  0  0  0
    0.2706    0.3626   -0.6193 H   0  0  0  0  0  0  0  0  0  0  0  0
   -1.1666   -0.0074    1.8475 H   0  0  0  0  0  0  0  0  0  0  0  0
   -3.7152    4.5833   -1.8188 H   0  0  0  0  0  0  0  0  0  0  0  0
   -3.5031    3.9053    0.5649 H   0  0  0  0  0  0  0  0  0  0  0  0
   -3.1020    4.2295   -4.2485 H   0  0  0  0  0  0  0  0  0  0  0  0
   -1.8783    2.8898   -5.9235 H   0  0  0  0  0  0  0  0  0  0  0  0
    0.9659    2.1802    3.9237 H   0  0  0  0  0  0  0  0  0  0  0  0
   -0.6769    2.6461    3.4427 H   0  0  0  0  0  0  0  0  0  0  0  0
   -0.3112    0.9782    3.9363 H   0  0  0  0  0  0  0  0  0  0  0  0
    1.1084    2.6178    0.1855 H   0  0  0  0  0  0  0  0  0  0  0  0
    1.9183    3.0315    1.6902 H   0  0  0  0  0  0  0  0  0  0  0  0
    0.2606    3.5829    1.3859 H   0  0  0  0  0  0  0  0  0  0  0  0
    4.5161   -0.6736    0.0224 H   0  0  0  0  0  0  0  0  0  0  0  0
    5.3359   -3.0598    0.3706 H   0  0  0  0  0  0  0  0  0  0  0  0
    5.2415   -2.8300    2.1244 H   0  0  0  0  0  0  0  0  0  0  0  0
    6.3533   -1.8506    1.1718 H   0  0  0  0  0  0  0  0  0  0  0  0
    2.8882   -1.0734    3.7678 H   0  0  0  0  0  0  0  0  0  0  0  0
    1.7501   -2.0418    2.8048 H   0  0  0  0  0  0  0  0  0  0  0  0
    3.3775   -2.6245    3.0834 H   0  0  0  0  0  0  0  0  0  0  0  0
  1  2  1  0
  2  3  2  3
  3  4  1  0
  3  5  1  0
  5  6  2  0
  5  7  1  0
  7  8  1  0
  8  9  1  0
  9 10  1  0
 10 11  1  0
 11 12  2  0
 12 13  1  0
 13 14  2  0
 14 15  1  0
 15 16  2  0
 14 17  1  0
 17 18  2  0
 18 19  1  0
 19 20  2  0
 19 21  1  0
  9 22  1  0
 22 23  1  0
 22 24  1  0
 22 25  1  0
 25 26  1  0
 26 27  2  0
 26 28  1  0
 28 29  2  3
 29 30  1  0
 28 31  1  0
 12  8  1  0
 16 11  1  0
 21 13  1  0
  1 32  1  0
  1 33  1  0
  1 34  1  0
  2 35  1  0
  4 36  1  0
  4 37  1  0
  4 38  1  0
  8 39  1  0
  9 40  1  0
 15 41  1  0
 16 42  1  0
 17 43  1  0
 18 44  1  0
 23 45  1  0
 23 46  1  0
 23 47  1  0
 24 48  1  0
 24 49  1  0
 24 50  1  0
 29 51  1  0
 30 52  1  0
 30 53  1  0
 30 54  1  0
 31 55  1  0
 31 56  1  0
 31 57  1  0
M  END
>  <Name>  (259) 
Archangelicin

>  <PubChem ID>  (259) 
5281371

>  <CDB ID>  (259) 
CDB0259

>  <Smiles>  (259) 
CC=C(C)C(=O)OC1C(OC2=C1C3=C(C=C2)C=CC(=O)O3)C(C)(C)OC(=O)C(=CC)C

>  <Chemical class>  (259) 
7-Oxygenated Coumarins

>  <Natural source>  (259) 
Angelica archangelica ssp. litoralis

>  <Molecular Formula>  (259) 
C24H26O7

>  <InChI-Key>  (259) 
RVGGCRQPGKFZDS-UHFFFAOYSA-N

>  <Total Molweight>  (259) 
426.463

>  <cLogP>  (259) 
4.6303

>  <cLogS>  (259) 
-4.239

>  <H-Acceptors>  (259) 
7

>  <H-Donors>  (259) 
0

>  <Rotatable Bonds>  (259) 
7

>  <Polar Surface Area>  (259) 
88.13

$$$$
CDB0260
     RDKit          3D

 62 65  0  0  0  0  0  0  0  0999 V2000
   -4.5211   -3.7455    1.4415 C   0  0  0  0  0  0  0  0  0  0  0  0
   -5.4956   -3.0161    0.5715 C   0  0  0  0  0  0  0  0  0  0  0  0
   -5.4241   -1.7387    0.1484 C   0  0  0  0  0  0  0  0  0  0  0  0
   -6.5109   -1.0888   -0.6540 C   0  0  0  0  0  0  0  0  0  0  0  0
   -4.2771   -0.8375    0.4438 C   0  0  0  0  0  0  0  0  0  0  0  0
   -4.4236    0.3077    0.8362 O   0  0  0  0  0  0  0  0  0  0  0  0
   -3.1211   -1.4718    0.1405 O   0  0  0  0  0  0  0  0  0  0  0  0
   -1.8120   -0.8065    0.1747 C   0  0  0  0  0  0  0  0  0  0  0  0
   -1.6333    0.0476    1.4392 C   0  0  0  0  0  0  0  0  0  0  0  0
   -0.8525   -2.0073    0.2894 C   0  0  0  0  0  0  0  0  0  0  0  0
   -1.6094   -0.0523   -1.1819 C   0  0  0  0  0  0  0  0  0  0  0  0
   -0.3064    0.7522   -1.4352 C   0  0  0  0  0  0  0  0  0  0  0  0
   -0.8020    2.1204   -1.1305 C   0  0  0  0  0  0  0  0  0  0  0  0
   -2.1841    2.1148   -1.1720 C   0  0  0  0  0  0  0  0  0  0  0  0
   -2.7211    0.8771   -1.4046 O   0  0  0  0  0  0  0  0  0  0  0  0
   -2.9329    3.2610   -0.9906 C   0  0  0  0  0  0  0  0  0  0  0  0
   -2.2553    4.4617   -0.7535 C   0  0  0  0  0  0  0  0  0  0  0  0
   -0.8505    4.4897   -0.7155 C   0  0  0  0  0  0  0  0  0  0  0  0
   -0.1312    3.3086   -0.9148 C   0  0  0  0  0  0  0  0  0  0  0  0
    1.2724    3.3022   -0.9097 O   0  0  0  0  0  0  0  0  0  0  0  0
    1.9936    4.4648   -0.6776 C   0  0  0  0  0  0  0  0  0  0  0  0
    3.2188    4.4800   -0.6512 O   0  0  0  0  0  0  0  0  0  0  0  0
    1.2200    5.7001   -0.4614 C   0  0  0  0  0  0  0  0  0  0  0  0
   -0.1163    5.7226   -0.4787 C   0  0  0  0  0  0  0  0  0  0  0  0
    0.8184    0.4197   -0.6364 O   0  0  0  0  0  0  0  0  0  0  0  0
    1.6794   -0.4453   -1.2260 C   0  0  0  0  0  0  0  0  0  0  0  0
    1.4916   -1.0505   -2.2676 O   0  0  0  0  0  0  0  0  0  0  0  0
    2.8750   -0.5586   -0.3687 C   0  0  0  0  0  0  0  0  0  0  0  0
    3.8399   -1.4358   -0.6832 C   0  0  0  0  0  0  0  0  0  0  0  0
    5.0702   -1.6152    0.0987 C   0  0  0  0  0  0  0  0  0  0  0  0
    6.2617   -1.9143   -0.5776 C   0  0  0  0  0  0  0  0  0  0  0  0
    7.4519   -2.1195    0.1269 C   0  0  0  0  0  0  0  0  0  0  0  0
    7.4466   -2.0372    1.5144 C   0  0  0  0  0  0  0  0  0  0  0  0
    6.2741   -1.7581    2.2045 C   0  0  0  0  0  0  0  0  0  0  0  0
    5.0859   -1.5519    1.4989 C   0  0  0  0  0  0  0  0  0  0  0  0
    8.5821   -2.2308    2.2430 O   0  0  0  0  0  0  0  0  0  0  0  0
   -3.8232   -3.0816    1.9580 H   0  0  0  0  0  0  0  0  0  0  0  0
   -3.9523   -4.4660    0.8465 H   0  0  0  0  0  0  0  0  0  0  0  0
   -5.0667   -4.2974    2.2140 H   0  0  0  0  0  0  0  0  0  0  0  0
   -6.3688   -3.6028    0.2903 H   0  0  0  0  0  0  0  0  0  0  0  0
   -6.9603   -0.2609   -0.0958 H   0  0  0  0  0  0  0  0  0  0  0  0
   -6.1087   -0.6967   -1.5943 H   0  0  0  0  0  0  0  0  0  0  0  0
   -7.3114   -1.7926   -0.9055 H   0  0  0  0  0  0  0  0  0  0  0  0
   -0.5883    0.3372    1.5889 H   0  0  0  0  0  0  0  0  0  0  0  0
   -1.9607   -0.5052    2.3275 H   0  0  0  0  0  0  0  0  0  0  0  0
   -2.2177    0.9701    1.4127 H   0  0  0  0  0  0  0  0  0  0  0  0
   -1.1870   -2.6922    1.0790 H   0  0  0  0  0  0  0  0  0  0  0  0
    0.1700   -1.7166    0.5331 H   0  0  0  0  0  0  0  0  0  0  0  0
   -0.8420   -2.5934   -0.6365 H   0  0  0  0  0  0  0  0  0  0  0  0
   -1.7057   -0.7983   -1.9828 H   0  0  0  0  0  0  0  0  0  0  0  0
   -0.0636    0.7486   -2.5077 H   0  0  0  0  0  0  0  0  0  0  0  0
   -4.0172    3.2208   -1.0149 H   0  0  0  0  0  0  0  0  0  0  0  0
   -2.8326    5.3704   -0.5991 H   0  0  0  0  0  0  0  0  0  0  0  0
    1.8036    6.5958   -0.2869 H   0  0  0  0  0  0  0  0  0  0  0  0
   -0.6653    6.6438   -0.3175 H   0  0  0  0  0  0  0  0  0  0  0  0
    2.9318    0.0981    0.4907 H   0  0  0  0  0  0  0  0  0  0  0  0
    3.7507   -2.0527   -1.5764 H   0  0  0  0  0  0  0  0  0  0  0  0
    6.2756   -1.9805   -1.6637 H   0  0  0  0  0  0  0  0  0  0  0  0
    8.3616   -2.3413   -0.4218 H   0  0  0  0  0  0  0  0  0  0  0  0
    6.2822   -1.7048    3.2895 H   0  0  0  0  0  0  0  0  0  0  0  0
    4.1769   -1.3529    2.0604 H   0  0  0  0  0  0  0  0  0  0  0  0
    9.3180   -2.3975    1.6316 H   0  0  0  0  0  0  0  0  0  0  0  0
  1  2  1  0
  2  3  2  3
  3  4  1  0
  3  5  1  0
  5  6  2  0
  5  7  1  0
  7  8  1  0
  8  9  1  0
  8 10  1  0
  8 11  1  0
 11 12  1  0
 12 13  1  0
 13 14  2  0
 14 15  1  0
 14 16  1  0
 16 17  2  0
 17 18  1  0
 18 19  2  0
 19 20  1  0
 20 21  1  0
 21 22  2  0
 21 23  1  0
 23 24  2  0
 12 25  1  0
 25 26  1  0
 26 27  2  0
 26 28  1  0
 28 29  2  3
 29 30  1  0
 30 31  1  0
 31 32  2  0
 32 33  1  0
 33 34  2  0
 34 35  1  0
 33 36  1  0
 15 11  1  0
 19 13  1  0
 24 18  1  0
 35 30  2  0
  1 37  1  0
  1 38  1  0
  1 39  1  0
  2 40  1  0
  4 41  1  0
  4 42  1  0
  4 43  1  0
  9 44  1  0
  9 45  1  0
  9 46  1  0
 10 47  1  0
 10 48  1  0
 10 49  1  0
 11 50  1  0
 12 51  1  0
 16 52  1  0
 17 53  1  0
 23 54  1  0
 24 55  1  0
 28 56  1  0
 29 57  1  0
 31 58  1  0
 32 59  1  0
 34 60  1  0
 35 61  1  0
 36 62  1  0
M  END
>  <Name>  (260) 
Angeladin

>  <PubChem ID>  (260) 
12306792

>  <CDB ID>  (260) 
CDB0260

>  <Smiles>  (260) 
CC=C(C)C(=O)OC(C)(C)C1C(C2=C(O1)C=CC3=C2OC(=O)C=C3)OC(=O)C=CC4=CC=C(C=C4)O

>  <Chemical class>  (260) 
7-Oxygenated Coumarins

>  <Natural source>  (260) 
Angelica longeradiata

>  <Molecular Formula>  (260) 
C28H26O8

>  <InChI-Key>  (260) 
JWFIGGMKUFMHTM-UHFFFAOYSA-N

>  <Total Molweight>  (260) 
490.506

>  <cLogP>  (260) 
4.7946

>  <cLogS>  (260) 
-5.047

>  <H-Acceptors>  (260) 
8

>  <H-Donors>  (260) 
1

>  <Rotatable Bonds>  (260) 
8

>  <Polar Surface Area>  (260) 
108.36

$$$$
CDB0261
     RDKit          3D

 61 63  0  0  0  0  0  0  0  0999 V2000
   -2.3078    3.7033   -0.6284 C   0  0  0  0  0  0  0  0  0  0  0  0
   -3.3610    2.9546   -1.4495 C   0  0  0  0  0  0  0  0  0  0  0  0
   -4.7092    3.6686   -1.3407 C   0  0  0  0  0  0  0  0  0  0  0  0
   -3.4991    1.4962   -0.9878 C   0  0  0  0  0  0  0  0  0  0  0  0
   -2.2765    0.6685   -1.3084 C   0  0  0  0  0  0  0  0  0  0  0  0
   -1.5235    0.8547   -2.2529 O   0  0  0  0  0  0  0  0  0  0  0  0
   -2.1461   -0.3386   -0.4046 O   0  0  0  0  0  0  0  0  0  0  0  0
   -0.9979   -1.1764   -0.6075 C   0  0  0  0  0  0  0  0  0  0  0  0
    0.2681   -0.5739    0.0594 C   0  0  0  0  0  0  0  0  0  0  0  0
    0.4566   -1.2172    1.3666 O   0  0  0  0  0  0  0  0  0  0  0  0
   -0.3683   -2.3068    1.3511 C   0  0  0  0  0  0  0  0  0  0  0  0
   -1.1960   -2.3708    0.2479 C   0  0  0  0  0  0  0  0  0  0  0  0
   -2.0699   -3.4321    0.1081 C   0  0  0  0  0  0  0  0  0  0  0  0
   -2.1132   -4.4345    1.0793 C   0  0  0  0  0  0  0  0  0  0  0  0
   -1.2663   -4.3516    2.1972 C   0  0  0  0  0  0  0  0  0  0  0  0
   -0.3835   -3.2748    2.3376 C   0  0  0  0  0  0  0  0  0  0  0  0
   -3.0457   -5.5362    0.9035 C   0  0  0  0  0  0  0  0  0  0  0  0
   -3.8377   -5.5617   -0.1729 C   0  0  0  0  0  0  0  0  0  0  0  0
   -3.8065   -4.5100   -1.2049 C   0  0  0  0  0  0  0  0  0  0  0  0
   -4.5492   -4.5668   -2.1780 O   0  0  0  0  0  0  0  0  0  0  0  0
   -2.9032   -3.4721   -1.0207 O   0  0  0  0  0  0  0  0  0  0  0  0
    1.5914   -0.7083   -0.7618 C   0  0  0  0  0  0  0  0  0  0  0  0
    1.9502   -2.1775   -1.0538 C   0  0  0  0  0  0  0  0  0  0  0  0
    1.5392    0.0402   -2.1023 C   0  0  0  0  0  0  0  0  0  0  0  0
    2.7382   -0.2288    0.0127 O   0  0  0  0  0  0  0  0  0  0  0  0
    2.7966    1.0574    0.4513 C   0  0  0  0  0  0  0  0  0  0  0  0
    1.9524    1.9167    0.2495 O   0  0  0  0  0  0  0  0  0  0  0  0
    4.0599    1.2501    1.2615 C   0  0  0  0  0  0  0  0  0  0  0  0
    4.4587    2.7262    1.4116 C   0  0  0  0  0  0  0  0  0  0  0  0
    4.9542    3.3092    0.0857 C   0  0  0  0  0  0  0  0  0  0  0  0
    5.5457    2.8693    2.4785 C   0  0  0  0  0  0  0  0  0  0  0  0
   -2.5672    3.7137    0.4358 H   0  0  0  0  0  0  0  0  0  0  0  0
   -2.2223    4.7422   -0.9646 H   0  0  0  0  0  0  0  0  0  0  0  0
   -1.3205    3.2417   -0.7310 H   0  0  0  0  0  0  0  0  0  0  0  0
   -3.0517    2.9760   -2.5021 H   0  0  0  0  0  0  0  0  0  0  0  0
   -4.6297    4.7049   -1.6857 H   0  0  0  0  0  0  0  0  0  0  0  0
   -5.4643    3.1693   -1.9569 H   0  0  0  0  0  0  0  0  0  0  0  0
   -5.0701    3.6822   -0.3066 H   0  0  0  0  0  0  0  0  0  0  0  0
   -3.6783    1.4692    0.0940 H   0  0  0  0  0  0  0  0  0  0  0  0
   -4.3494    1.0141   -1.4838 H   0  0  0  0  0  0  0  0  0  0  0  0
   -0.8771   -1.4471   -1.6610 H   0  0  0  0  0  0  0  0  0  0  0  0
    0.0810    0.4802    0.2871 H   0  0  0  0  0  0  0  0  0  0  0  0
   -1.2876   -5.1204    2.9663 H   0  0  0  0  0  0  0  0  0  0  0  0
    0.2758   -3.1996    3.1962 H   0  0  0  0  0  0  0  0  0  0  0  0
   -3.0871   -6.3211    1.6506 H   0  0  0  0  0  0  0  0  0  0  0  0
   -4.5473   -6.3628   -0.3404 H   0  0  0  0  0  0  0  0  0  0  0  0
    2.1075   -2.7422   -0.1284 H   0  0  0  0  0  0  0  0  0  0  0  0
    2.8981   -2.2392   -1.6026 H   0  0  0  0  0  0  0  0  0  0  0  0
    1.1853   -2.6831   -1.6504 H   0  0  0  0  0  0  0  0  0  0  0  0
    0.8601   -0.4406   -2.8129 H   0  0  0  0  0  0  0  0  0  0  0  0
    1.2109    1.0761   -1.9754 H   0  0  0  0  0  0  0  0  0  0  0  0
    2.5340    0.0844   -2.5606 H   0  0  0  0  0  0  0  0  0  0  0  0
    3.8734    0.8070    2.2469 H   0  0  0  0  0  0  0  0  0  0  0  0
    4.8764    0.6948    0.7842 H   0  0  0  0  0  0  0  0  0  0  0  0
    3.5878    3.3086    1.7376 H   0  0  0  0  0  0  0  0  0  0  0  0
    5.2354    4.3609    0.2070 H   0  0  0  0  0  0  0  0  0  0  0  0
    4.1788    3.2624   -0.6852 H   0  0  0  0  0  0  0  0  0  0  0  0
    5.8313    2.7668   -0.2838 H   0  0  0  0  0  0  0  0  0  0  0  0
    6.4459    2.3070    2.2075 H   0  0  0  0  0  0  0  0  0  0  0  0
    5.8280    3.9195    2.6080 H   0  0  0  0  0  0  0  0  0  0  0  0
    5.1922    2.4979    3.4461 H   0  0  0  0  0  0  0  0  0  0  0  0
  1  2  1  0
  2  3  1  0
  2  4  1  0
  4  5  1  0
  5  6  2  0
  5  7  1  0
  7  8  1  0
  8  9  1  0
  9 10  1  0
 10 11  1  0
 11 12  2  0
 12 13  1  0
 13 14  2  0
 14 15  1  0
 15 16  2  0
 14 17  1  0
 17 18  2  0
 18 19  1  0
 19 20  2  0
 19 21  1  0
  9 22  1  0
 22 23  1  0
 22 24  1  0
 22 25  1  0
 25 26  1  0
 26 27  2  0
 26 28  1  0
 28 29  1  0
 29 30  1  0
 29 31  1  0
 12  8  1  0
 16 11  1  0
 21 13  1  0
  1 32  1  0
  1 33  1  0
  1 34  1  0
  2 35  1  0
  3 36  1  0
  3 37  1  0
  3 38  1  0
  4 39  1  0
  4 40  1  0
  8 41  1  0
  9 42  1  0
 15 43  1  0
 16 44  1  0
 17 45  1  0
 18 46  1  0
 23 47  1  0
 23 48  1  0
 23 49  1  0
 24 50  1  0
 24 51  1  0
 24 52  1  0
 28 53  1  0
 28 54  1  0
 29 55  1  0
 30 56  1  0
 30 57  1  0
 30 58  1  0
 31 59  1  0
 31 60  1  0
 31 61  1  0
M  END
>  <Name>  (261) 
Athamantin

>  <PubChem ID>  (261) 
442051

>  <CDB ID>  (261) 
CDB0261

>  <Smiles>  (261) 
CC(C)CC(=O)OC1C(OC2=C1C3=C(C=C2)C=CC(=O)O3)C(C)(C)OC(=O)CC(C)C

>  <Chemical class>  (261) 
7-Oxygenated Coumarins

>  <Natural source>  (261) 
Athamanta oreoselinum

>  <Molecular Formula>  (261) 
C24H30O7

>  <InChI-Key>  (261) 
KPLBOWKEQXYXSD-UHFFFAOYSA-N

>  <Total Molweight>  (261) 
430.495

>  <cLogP>  (261) 
4.3585

>  <cLogS>  (261) 
-4.767

>  <H-Acceptors>  (261) 
7

>  <H-Donors>  (261) 
0

>  <Rotatable Bonds>  (261) 
9

>  <Polar Surface Area>  (261) 
88.13

$$$$
CDB0262
     RDKit          3D

 50 52  0  0  0  0  0  0  0  0999 V2000
    6.3775    1.6595    0.8427 C   0  0  0  0  0  0  0  0  0  0  0  0
    5.2155    0.8501    0.3299 C   0  0  0  0  0  0  0  0  0  0  0  0
    4.2097    1.4543   -0.3337 C   0  0  0  0  0  0  0  0  0  0  0  0
    2.9742    0.8482   -0.8802 C   0  0  0  0  0  0  0  0  0  0  0  0
    2.4521    1.2722   -1.8973 O   0  0  0  0  0  0  0  0  0  0  0  0
    2.5288   -0.1346   -0.0686 O   0  0  0  0  0  0  0  0  0  0  0  0
    1.2518   -0.8248   -0.2873 C   0  0  0  0  0  0  0  0  0  0  0  0
    1.1016   -1.2615   -1.7517 C   0  0  0  0  0  0  0  0  0  0  0  0
    1.4002   -2.0844    0.5849 C   0  0  0  0  0  0  0  0  0  0  0  0
    0.1084    0.0716    0.2605 C   0  0  0  0  0  0  0  0  0  0  0  0
   -1.2913   -0.5691    0.4645 C   0  0  0  0  0  0  0  0  0  0  0  0
   -2.1172    0.6522    0.2801 C   0  0  0  0  0  0  0  0  0  0  0  0
   -1.3622    1.6324   -0.3388 C   0  0  0  0  0  0  0  0  0  0  0  0
   -0.0667    1.2590   -0.5713 O   0  0  0  0  0  0  0  0  0  0  0  0
   -1.8938    2.8547   -0.7005 C   0  0  0  0  0  0  0  0  0  0  0  0
   -3.2397    3.1013   -0.4088 C   0  0  0  0  0  0  0  0  0  0  0  0
   -4.0222    2.1191    0.2231 C   0  0  0  0  0  0  0  0  0  0  0  0
   -3.4488    0.8901    0.5588 C   0  0  0  0  0  0  0  0  0  0  0  0
   -4.2029   -0.1258    1.1658 O   0  0  0  0  0  0  0  0  0  0  0  0
   -5.5488    0.0582    1.4532 C   0  0  0  0  0  0  0  0  0  0  0  0
   -6.2362   -0.8154    1.9689 O   0  0  0  0  0  0  0  0  0  0  0  0
   -6.1341    1.3662    1.1086 C   0  0  0  0  0  0  0  0  0  0  0  0
   -5.4259    2.3409    0.5302 C   0  0  0  0  0  0  0  0  0  0  0  0
   -1.6681   -1.4762   -0.5744 O   0  0  0  0  0  0  0  0  0  0  0  0
   -2.1641   -2.6749   -0.1691 C   0  0  0  0  0  0  0  0  0  0  0  0
   -2.1916   -3.0804    0.9831 O   0  0  0  0  0  0  0  0  0  0  0  0
   -2.6448   -3.4562   -1.3530 C   0  0  0  0  0  0  0  0  0  0  0  0
    5.3201   -0.6258    0.5999 C   0  0  0  0  0  0  0  0  0  0  0  0
    6.2587    2.7301    0.6448 H   0  0  0  0  0  0  0  0  0  0  0  0
    6.4774    1.5320    1.9257 H   0  0  0  0  0  0  0  0  0  0  0  0
    7.3081    1.3344    0.3660 H   0  0  0  0  0  0  0  0  0  0  0  0
    4.2609    2.5186   -0.5480 H   0  0  0  0  0  0  0  0  0  0  0  0
    0.3717   -2.0672   -1.8693 H   0  0  0  0  0  0  0  0  0  0  0  0
    2.0570   -1.6227   -2.1494 H   0  0  0  0  0  0  0  0  0  0  0  0
    0.7761   -0.4387   -2.3951 H   0  0  0  0  0  0  0  0  0  0  0  0
    2.3013   -2.6435    0.3049 H   0  0  0  0  0  0  0  0  0  0  0  0
    0.5475   -2.7609    0.4981 H   0  0  0  0  0  0  0  0  0  0  0  0
    1.5226   -1.8152    1.6406 H   0  0  0  0  0  0  0  0  0  0  0  0
    0.4423    0.4717    1.2321 H   0  0  0  0  0  0  0  0  0  0  0  0
   -1.3757   -0.9819    1.4755 H   0  0  0  0  0  0  0  0  0  0  0  0
   -1.2794    3.5992   -1.1965 H   0  0  0  0  0  0  0  0  0  0  0  0
   -3.6716    4.0606   -0.6848 H   0  0  0  0  0  0  0  0  0  0  0  0
   -7.1824    1.4897    1.3517 H   0  0  0  0  0  0  0  0  0  0  0  0
   -5.8792    3.2946    0.2832 H   0  0  0  0  0  0  0  0  0  0  0  0
   -1.7982   -3.7176   -1.9924 H   0  0  0  0  0  0  0  0  0  0  0  0
   -3.1257   -4.3762   -1.0088 H   0  0  0  0  0  0  0  0  0  0  0  0
   -3.3815   -2.8711   -1.9095 H   0  0  0  0  0  0  0  0  0  0  0  0
    5.0404   -0.8423    1.6356 H   0  0  0  0  0  0  0  0  0  0  0  0
    6.3496   -0.9676    0.4448 H   0  0  0  0  0  0  0  0  0  0  0  0
    4.6986   -1.2273   -0.0683 H   0  0  0  0  0  0  0  0  0  0  0  0
  1  2  1  0
  2  3  2  3
  3  4  1  0
  4  5  2  0
  4  6  1  0
  6  7  1  0
  7  8  1  0
  7  9  1  0
  7 10  1  0
 10 11  1  0
 11 12  1  0
 12 13  2  0
 13 14  1  0
 13 15  1  0
 15 16  2  0
 16 17  1  0
 17 18  2  0
 18 19  1  0
 19 20  1  0
 20 21  2  0
 20 22  1  0
 22 23  2  0
 11 24  1  0
 24 25  1  0
 25 26  2  0
 25 27  1  0
  2 28  1  0
 14 10  1  0
 18 12  1  0
 23 17  1  0
  1 29  1  0
  1 30  1  0
  1 31  1  0
  3 32  1  0
  8 33  1  0
  8 34  1  0
  8 35  1  0
  9 36  1  0
  9 37  1  0
  9 38  1  0
 10 39  1  0
 11 40  1  0
 15 41  1  0
 16 42  1  0
 22 43  1  0
 23 44  1  0
 27 45  1  0
 27 46  1  0
 27 47  1  0
 28 48  1  0
 28 49  1  0
 28 50  1  0
M  END
>  <Name>  (262) 
Peucenidin

>  <PubChem ID>  (262) 
442137

>  <CDB ID>  (262) 
CDB0262

>  <Smiles>  (262) 
CC(=CC(=O)OC(C)(C)C1C(C2=C(O1)C=CC3=C2OC(=O)C=C3)OC(=O)C)C

>  <Chemical class>  (262) 
7-Oxygenated Coumarins

>  <Natural source>  (262) 
Peucedanum oreoselinum

>  <Molecular Formula>  (262) 
C21H22O7

>  <InChI-Key>  (262) 
YTLKDGZSNPIHNO-UHFFFAOYSA-N

>  <Total Molweight>  (262) 
386.399

>  <cLogP>  (262) 
3.3673

>  <cLogS>  (262) 
-3.803

>  <H-Acceptors>  (262) 
7

>  <H-Donors>  (262) 
0

>  <Rotatable Bonds>  (262) 
6

>  <Polar Surface Area>  (262) 
88.13

$$$$
CDB0263
     RDKit          3D

 57 59  0  0  0  0  0  0  0  0999 V2000
   -5.3454   -3.1337    0.4145 C   0  0  0  0  0  0  0  0  0  0  0  0
   -4.0695   -2.3607    0.2074 C   0  0  0  0  0  0  0  0  0  0  0  0
   -3.9555   -1.5075   -0.8299 C   0  0  0  0  0  0  0  0  0  0  0  0
   -2.8094   -0.6409   -1.1734 C   0  0  0  0  0  0  0  0  0  0  0  0
   -2.5309   -0.3462   -2.3252 O   0  0  0  0  0  0  0  0  0  0  0  0
   -2.1906   -0.1758   -0.0673 O   0  0  0  0  0  0  0  0  0  0  0  0
   -1.0817    0.6957   -0.3252 C   0  0  0  0  0  0  0  0  0  0  0  0
    0.2264   -0.1048   -0.5661 C   0  0  0  0  0  0  0  0  0  0  0  0
    0.9806   -0.1517    0.6936 O   0  0  0  0  0  0  0  0  0  0  0  0
    0.3978    0.7895    1.4945 C   0  0  0  0  0  0  0  0  0  0  0  0
   -0.7533    1.3412    0.9685 C   0  0  0  0  0  0  0  0  0  0  0  0
   -1.4317    2.3148    1.6765 C   0  0  0  0  0  0  0  0  0  0  0  0
   -0.9527    2.7370    2.9183 C   0  0  0  0  0  0  0  0  0  0  0  0
    0.2185    2.1622    3.4401 C   0  0  0  0  0  0  0  0  0  0  0  0
    0.9028    1.1753    2.7218 C   0  0  0  0  0  0  0  0  0  0  0  0
   -1.6917    3.7605    3.6397 C   0  0  0  0  0  0  0  0  0  0  0  0
   -2.8062    4.2672    3.1036 C   0  0  0  0  0  0  0  0  0  0  0  0
   -3.3256    3.8316    1.7948 C   0  0  0  0  0  0  0  0  0  0  0  0
   -4.3504    4.3216    1.3350 O   0  0  0  0  0  0  0  0  0  0  0  0
   -2.6006    2.8583    1.1211 O   0  0  0  0  0  0  0  0  0  0  0  0
    1.1569    0.4535   -1.6914 C   0  0  0  0  0  0  0  0  0  0  0  0
    0.4948    0.4179   -3.0772 C   0  0  0  0  0  0  0  0  0  0  0  0
    1.6049    1.9011   -1.4159 C   0  0  0  0  0  0  0  0  0  0  0  0
    2.4195   -0.2836   -1.7423 O   0  0  0  0  0  0  0  0  0  0  0  0
    2.4373   -1.6153   -1.9617 C   0  0  0  0  0  0  0  0  0  0  0  0
    1.4778   -2.3318   -2.1977 O   0  0  0  0  0  0  0  0  0  0  0  0
    3.8234   -2.1315   -1.9854 C   0  0  0  0  0  0  0  0  0  0  0  0
    4.8758   -1.7300   -1.2449 C   0  0  0  0  0  0  0  0  0  0  0  0
    6.2282   -2.3609   -1.4467 C   0  0  0  0  0  0  0  0  0  0  0  0
    4.8335   -0.6854   -0.1632 C   0  0  0  0  0  0  0  0  0  0  0  0
   -2.9932   -2.6594    1.2157 C   0  0  0  0  0  0  0  0  0  0  0  0
   -6.1119   -2.8774   -0.3245 H   0  0  0  0  0  0  0  0  0  0  0  0
   -5.1559   -4.2094    0.3376 H   0  0  0  0  0  0  0  0  0  0  0  0
   -5.7579   -2.9222    1.4065 H   0  0  0  0  0  0  0  0  0  0  0  0
   -4.7637   -1.4149   -1.5504 H   0  0  0  0  0  0  0  0  0  0  0  0
   -1.3185    1.4324   -1.0993 H   0  0  0  0  0  0  0  0  0  0  0  0
   -0.0284   -1.1470   -0.7833 H   0  0  0  0  0  0  0  0  0  0  0  0
    0.6053    2.4750    4.4073 H   0  0  0  0  0  0  0  0  0  0  0  0
    1.8082    0.7235    3.1137 H   0  0  0  0  0  0  0  0  0  0  0  0
   -1.3292    4.0963    4.6050 H   0  0  0  0  0  0  0  0  0  0  0  0
   -3.3872    5.0292    3.6088 H   0  0  0  0  0  0  0  0  0  0  0  0
    1.2278    0.6353   -3.8628 H   0  0  0  0  0  0  0  0  0  0  0  0
   -0.3180    1.1455   -3.1612 H   0  0  0  0  0  0  0  0  0  0  0  0
    0.0826   -0.5702   -3.3029 H   0  0  0  0  0  0  0  0  0  0  0  0
    2.2807    2.2505   -2.2064 H   0  0  0  0  0  0  0  0  0  0  0  0
    2.1782    1.9714   -0.4852 H   0  0  0  0  0  0  0  0  0  0  0  0
    0.7623    2.5968   -1.3656 H   0  0  0  0  0  0  0  0  0  0  0  0
    3.9358   -2.9493   -2.6921 H   0  0  0  0  0  0  0  0  0  0  0  0
    6.9675   -1.5948   -1.7031 H   0  0  0  0  0  0  0  0  0  0  0  0
    6.5531   -2.8666   -0.5315 H   0  0  0  0  0  0  0  0  0  0  0  0
    6.2258   -3.1018   -2.2532 H   0  0  0  0  0  0  0  0  0  0  0  0
    3.8267   -0.5094    0.2229 H   0  0  0  0  0  0  0  0  0  0  0  0
    5.2417    0.2601   -0.5335 H   0  0  0  0  0  0  0  0  0  0  0  0
    5.4347   -1.0046    0.6955 H   0  0  0  0  0  0  0  0  0  0  0  0
   -2.9703   -3.7319    1.4391 H   0  0  0  0  0  0  0  0  0  0  0  0
   -3.1876   -2.1203    2.1480 H   0  0  0  0  0  0  0  0  0  0  0  0
   -1.9915   -2.4043    0.8607 H   0  0  0  0  0  0  0  0  0  0  0  0
  1  2  1  0
  2  3  2  3
  3  4  1  0
  4  5  2  0
  4  6  1  0
  6  7  1  0
  7  8  1  0
  8  9  1  0
  9 10  1  0
 10 11  2  0
 11 12  1  0
 12 13  2  0
 13 14  1  0
 14 15  2  0
 13 16  1  0
 16 17  2  0
 17 18  1  0
 18 19  2  0
 18 20  1  0
  8 21  1  0
 21 22  1  0
 21 23  1  0
 21 24  1  0
 24 25  1  0
 25 26  2  0
 25 27  1  0
 27 28  2  3
 28 29  1  0
 28 30  1  0
  2 31  1  0
 11  7  1  0
 15 10  1  0
 20 12  1  0
  1 32  1  0
  1 33  1  0
  1 34  1  0
  3 35  1  0
  7 36  1  0
  8 37  1  0
 14 38  1  0
 15 39  1  0
 16 40  1  0
 17 41  1  0
 22 42  1  0
 22 43  1  0
 22 44  1  0
 23 45  1  0
 23 46  1  0
 23 47  1  0
 27 48  1  0
 29 49  1  0
 29 50  1  0
 29 51  1  0
 30 52  1  0
 30 53  1  0
 30 54  1  0
 31 55  1  0
 31 56  1  0
 31 57  1  0
M  END
>  <Name>  (263) 
Edulisin Ii

>  <PubChem ID>  (263) 
76801427

>  <CDB ID>  (263) 
CDB0263

>  <Smiles>  (263) 
CC(=CC(=O)OC1C(OC2=C1C3=C(C=C2)C=CC(=O)O3)C(C)(C)OC(=O)C=C(C)C)C

>  <Chemical class>  (263) 
7-Oxygenated Coumarins

>  <Natural source>  (263) 
Angelica edulis

>  <Molecular Formula>  (263) 
C24H26O7

>  <InChI-Key>  (263) 
QMDNUCYGVSWWRO-UHFFFAOYSA-N

>  <Total Molweight>  (263) 
426.463

>  <cLogP>  (263) 
4.6303

>  <cLogS>  (263) 
-4.239

>  <H-Acceptors>  (263) 
7

>  <H-Donors>  (263) 
0

>  <Rotatable Bonds>  (263) 
7

>  <Polar Surface Area>  (263) 
88.13

$$$$
CDB0264
     RDKit          3D

 62 65  0  0  0  0  0  0  0  0999 V2000
   -4.2112    4.2706   -1.4857 C   0  0  0  0  0  0  0  0  0  0  0  0
   -4.2198    3.7516   -0.0735 C   0  0  0  0  0  0  0  0  0  0  0  0
   -3.6590    2.6023    0.3513 C   0  0  0  0  0  0  0  0  0  0  0  0
   -2.8783    1.6440   -0.4660 C   0  0  0  0  0  0  0  0  0  0  0  0
   -2.4532    1.8219   -1.5925 O   0  0  0  0  0  0  0  0  0  0  0  0
   -2.6928    0.5265    0.2768 O   0  0  0  0  0  0  0  0  0  0  0  0
   -1.9770   -0.5234   -0.3931 C   0  0  0  0  0  0  0  0  0  0  0  0
   -0.4440   -0.2825   -0.3872 C   0  0  0  0  0  0  0  0  0  0  0  0
    0.1220   -0.9881    0.7733 O   0  0  0  0  0  0  0  0  0  0  0  0
   -0.8454   -1.8761    1.1536 C   0  0  0  0  0  0  0  0  0  0  0  0
   -2.0527   -1.6998    0.5067 C   0  0  0  0  0  0  0  0  0  0  0  0
   -3.1114   -2.5407    0.7915 C   0  0  0  0  0  0  0  0  0  0  0  0
   -2.9573   -3.5649    1.7280 C   0  0  0  0  0  0  0  0  0  0  0  0
   -1.7229   -3.7272    2.3795 C   0  0  0  0  0  0  0  0  0  0  0  0
   -0.6531   -2.8719    2.0922 C   0  0  0  0  0  0  0  0  0  0  0  0
   -4.0905   -4.4327    2.0051 C   0  0  0  0  0  0  0  0  0  0  0  0
   -5.2469   -4.2277    1.3669 C   0  0  0  0  0  0  0  0  0  0  0  0
   -5.4273   -3.1477    0.3805 C   0  0  0  0  0  0  0  0  0  0  0  0
   -6.5043   -2.9881   -0.1819 O   0  0  0  0  0  0  0  0  0  0  0  0
   -4.3296   -2.3370    0.1249 O   0  0  0  0  0  0  0  0  0  0  0  0
    0.3349   -0.7170   -1.6775 C   0  0  0  0  0  0  0  0  0  0  0  0
    0.2175   -2.2255   -1.9464 C   0  0  0  0  0  0  0  0  0  0  0  0
   -0.1478    0.0959   -2.8880 C   0  0  0  0  0  0  0  0  0  0  0  0
    1.7273   -0.3647   -1.3854 O   0  0  0  0  0  0  0  0  0  0  0  0
    2.7303   -0.6070   -2.2550 C   0  0  0  0  0  0  0  0  0  0  0  0
    2.6380   -1.1074   -3.3645 O   0  0  0  0  0  0  0  0  0  0  0  0
    4.0349   -0.1789   -1.7056 C   0  0  0  0  0  0  0  0  0  0  0  0
    4.2146    0.2996   -0.4642 C   0  0  0  0  0  0  0  0  0  0  0  0
    5.5162    0.7269    0.0679 C   0  0  0  0  0  0  0  0  0  0  0  0
    5.5585    1.8115    0.9546 C   0  0  0  0  0  0  0  0  0  0  0  0
    6.7714    2.2334    1.5044 C   0  0  0  0  0  0  0  0  0  0  0  0
    7.9442    1.5650    1.1788 C   0  0  0  0  0  0  0  0  0  0  0  0
    7.9249    0.4762    0.3146 C   0  0  0  0  0  0  0  0  0  0  0  0
    6.7097    0.0554   -0.2354 C   0  0  0  0  0  0  0  0  0  0  0  0
    9.1051    2.0090    1.7380 O   0  0  0  0  0  0  0  0  0  0  0  0
   -4.9453    4.6427    0.9018 C   0  0  0  0  0  0  0  0  0  0  0  0
   -3.9376    3.5201   -2.2286 H   0  0  0  0  0  0  0  0  0  0  0  0
   -3.5176    5.1130   -1.5722 H   0  0  0  0  0  0  0  0  0  0  0  0
   -5.2115    4.6221   -1.7626 H   0  0  0  0  0  0  0  0  0  0  0  0
   -3.7507    2.3162    1.3960 H   0  0  0  0  0  0  0  0  0  0  0  0
   -2.4091   -0.7311   -1.3765 H   0  0  0  0  0  0  0  0  0  0  0  0
   -0.2268    0.7778   -0.2009 H   0  0  0  0  0  0  0  0  0  0  0  0
   -1.5843   -4.5171    3.1143 H   0  0  0  0  0  0  0  0  0  0  0  0
    0.3055   -2.9878    2.5874 H   0  0  0  0  0  0  0  0  0  0  0  0
   -3.9816   -5.2338    2.7278 H   0  0  0  0  0  0  0  0  0  0  0  0
   -6.1153   -4.8502    1.5454 H   0  0  0  0  0  0  0  0  0  0  0  0
    0.6979   -2.5077   -2.8885 H   0  0  0  0  0  0  0  0  0  0  0  0
   -0.8258   -2.5465   -2.0215 H   0  0  0  0  0  0  0  0  0  0  0  0
    0.7157   -2.8087   -1.1648 H   0  0  0  0  0  0  0  0  0  0  0  0
    0.4168   -0.1455   -3.7937 H   0  0  0  0  0  0  0  0  0  0  0  0
   -1.2013   -0.0874   -3.1153 H   0  0  0  0  0  0  0  0  0  0  0  0
   -0.0036    1.1681   -2.7152 H   0  0  0  0  0  0  0  0  0  0  0  0
    4.8550   -0.2831   -2.4073 H   0  0  0  0  0  0  0  0  0  0  0  0
    3.3725    0.4118    0.2160 H   0  0  0  0  0  0  0  0  0  0  0  0
    4.6486    2.3451    1.2203 H   0  0  0  0  0  0  0  0  0  0  0  0
    6.7986    3.0797    2.1848 H   0  0  0  0  0  0  0  0  0  0  0  0
    8.8347   -0.0590    0.0621 H   0  0  0  0  0  0  0  0  0  0  0  0
    6.7082   -0.8105   -0.8930 H   0  0  0  0  0  0  0  0  0  0  0  0
    9.8357    1.4552    1.4176 H   0  0  0  0  0  0  0  0  0  0  0  0
   -5.9966    4.7456    0.6134 H   0  0  0  0  0  0  0  0  0  0  0  0
   -4.9184    4.2510    1.9241 H   0  0  0  0  0  0  0  0  0  0  0  0
   -4.4887    5.6379    0.9162 H   0  0  0  0  0  0  0  0  0  0  0  0
  1  2  1  0
  2  3  2  3
  3  4  1  0
  4  5  2  0
  4  6  1  0
  6  7  1  0
  7  8  1  0
  8  9  1  0
  9 10  1  0
 10 11  2  0
 11 12  1  0
 12 13  2  0
 13 14  1  0
 14 15  2  0
 13 16  1  0
 16 17  2  0
 17 18  1  0
 18 19  2  0
 18 20  1  0
  8 21  1  0
 21 22  1  0
 21 23  1  0
 21 24  1  0
 24 25  1  0
 25 26  2  0
 25 27  1  0
 27 28  2  3
 28 29  1  0
 29 30  1  0
 30 31  2  0
 31 32  1  0
 32 33  2  0
 33 34  1  0
 32 35  1  0
  2 36  1  0
 11  7  1  0
 15 10  1  0
 20 12  1  0
 34 29  2  0
  1 37  1  0
  1 38  1  0
  1 39  1  0
  3 40  1  0
  7 41  1  0
  8 42  1  0
 14 43  1  0
 15 44  1  0
 16 45  1  0
 17 46  1  0
 22 47  1  0
 22 48  1  0
 22 49  1  0
 23 50  1  0
 23 51  1  0
 23 52  1  0
 27 53  1  0
 28 54  1  0
 30 55  1  0
 31 56  1  0
 33 57  1  0
 34 58  1  0
 35 59  1  0
 36 60  1  0
 36 61  1  0
 36 62  1  0
M  END
>  <Name>  (264) 
Edulisin I

>  <PubChem ID>  (264) 
131751055

>  <CDB ID>  (264) 
CDB0264

>  <Smiles>  (264) 
CC(=CC(=O)OC1C(OC2=C1C3=C(C=C2)C=CC(=O)O3)C(C)(C)OC(=O)C=CC4=CC=C(C=C4)O)C

>  <Chemical class>  (264) 
7-Oxygenated Coumarins

>  <Natural source>  (264) 
Angelica edulis

>  <Molecular Formula>  (264) 
C28H26O8

>  <InChI-Key>  (264) 
JZZJEBOMWXWTEY-UHFFFAOYSA-N

>  <Total Molweight>  (264) 
490.506

>  <cLogP>  (264) 
4.7946

>  <cLogS>  (264) 
-5.047

>  <H-Acceptors>  (264) 
8

>  <H-Donors>  (264) 
1

>  <Rotatable Bonds>  (264) 
8

>  <Polar Surface Area>  (264) 
108.36

$$$$
CDB0265
     RDKit          3D

 33 35  0  0  0  0  0  0  0  0999 V2000
   -3.8433   -1.0792   -0.2275 C   0  0  0  0  0  0  0  0  0  0  0  0
   -2.8159   -0.0221   -0.6653 C   0  0  0  0  0  0  0  0  0  0  0  0
   -3.0240    1.2633    0.1683 C   0  0  0  0  0  0  0  0  0  0  0  0
   -2.8355    1.0624    1.5603 O   0  0  0  0  0  0  0  0  0  0  0  0
   -1.3833   -0.6141   -0.5835 C   0  0  0  0  0  0  0  0  0  0  0  0
   -0.2647    0.3257   -1.0758 C   0  0  0  0  0  0  0  0  0  0  0  0
    0.8233   -0.1115   -0.1740 C   0  0  0  0  0  0  0  0  0  0  0  0
    0.2990   -0.8817    0.8479 C   0  0  0  0  0  0  0  0  0  0  0  0
   -1.0507   -1.0866    0.7485 O   0  0  0  0  0  0  0  0  0  0  0  0
    1.0837   -1.3735    1.8732 C   0  0  0  0  0  0  0  0  0  0  0  0
    2.4532   -1.0847    1.8558 C   0  0  0  0  0  0  0  0  0  0  0  0
    3.0027   -0.3057    0.8226 C   0  0  0  0  0  0  0  0  0  0  0  0
    2.1722    0.1823   -0.1888 C   0  0  0  0  0  0  0  0  0  0  0  0
    2.6753    0.9782   -1.2292 O   0  0  0  0  0  0  0  0  0  0  0  0
    4.0239    1.3004   -1.2907 C   0  0  0  0  0  0  0  0  0  0  0  0
    4.4927    1.9906   -2.1887 O   0  0  0  0  0  0  0  0  0  0  0  0
    4.8891    0.7738   -0.2198 C   0  0  0  0  0  0  0  0  0  0  0  0
    4.4195    0.0185    0.7778 C   0  0  0  0  0  0  0  0  0  0  0  0
   -3.0926    0.3183   -2.0393 O   0  0  0  0  0  0  0  0  0  0  0  0
   -3.7610   -1.9817   -0.8441 H   0  0  0  0  0  0  0  0  0  0  0  0
   -4.8648   -0.7065   -0.3655 H   0  0  0  0  0  0  0  0  0  0  0  0
   -3.7195   -1.3683    0.8208 H   0  0  0  0  0  0  0  0  0  0  0  0
   -2.3601    2.0663   -0.1660 H   0  0  0  0  0  0  0  0  0  0  0  0
   -4.0436    1.6386    0.0159 H   0  0  0  0  0  0  0  0  0  0  0  0
   -2.9545    1.9247    1.9935 H   0  0  0  0  0  0  0  0  0  0  0  0
   -1.3589   -1.5058   -1.2303 H   0  0  0  0  0  0  0  0  0  0  0  0
   -0.0405    0.1581   -2.1333 H   0  0  0  0  0  0  0  0  0  0  0  0
   -0.4757    1.3842   -0.9104 H   0  0  0  0  0  0  0  0  0  0  0  0
    0.6446   -1.9673    2.6679 H   0  0  0  0  0  0  0  0  0  0  0  0
    3.0829   -1.4678    2.6553 H   0  0  0  0  0  0  0  0  0  0  0  0
    5.9370    1.0389   -0.2902 H   0  0  0  0  0  0  0  0  0  0  0  0
    5.0746   -0.3571    1.5559 H   0  0  0  0  0  0  0  0  0  0  0  0
   -3.1853   -0.5109   -2.5412 H   0  0  0  0  0  0  0  0  0  0  0  0
  1  2  1  0
  2  3  1  0
  3  4  1  0
  2  5  1  0
  5  6  1  0
  6  7  1  0
  7  8  2  0
  8  9  1  0
  8 10  1  0
 10 11  2  0
 11 12  1  0
 12 13  2  0
 13 14  1  0
 14 15  1  0
 15 16  2  0
 15 17  1  0
 17 18  2  0
  2 19  1  0
  9  5  1  0
 13  7  1  0
 18 12  1  0
  1 20  1  0
  1 21  1  0
  1 22  1  0
  3 23  1  0
  3 24  1  0
  4 25  1  0
  5 26  1  0
  6 27  1  0
  6 28  1  0
 10 29  1  0
 11 30  1  0
 17 31  1  0
 18 32  1  0
 19 33  1  0
M  END
>  <Name>  (265) 
Hermandiol (Angelidiol A)

>  <PubChem ID>  (265) 
5318019

>  <CDB ID>  (265) 
CDB0265

>  <Smiles>  (265) 
CC(CO)(C1CC2=C(O1)C=CC3=C2OC(=O)C=C3)O

>  <Chemical class>  (265) 
7-Oxygenated Coumarins

>  <Natural source>  (265) 
Heracleum mantegazzianum

>  <Molecular Formula>  (265) 
C14H14O5

>  <InChI-Key>  (265) 
QWQZTILKTKQJTA-UHFFFAOYSA-N

>  <Total Molweight>  (265) 
262.26

>  <cLogP>  (265) 
0.9344

>  <cLogS>  (265) 
-2.588

>  <H-Acceptors>  (265) 
5

>  <H-Donors>  (265) 
2

>  <Rotatable Bonds>  (265) 
2

>  <Polar Surface Area>  (265) 
75.99

$$$$
CDB0266
     RDKit          3D

 70 75  0  0  0  0  0  0  0  0999 V2000
   -0.2629   -2.6264   -1.6351 C   0  0  0  0  0  0  0  0  0  0  0  0
   -1.4458   -1.8201   -2.1766 C   0  0  0  0  0  0  0  0  0  0  0  0
   -2.3403   -2.7480   -3.0162 C   0  0  0  0  0  0  0  0  0  0  0  0
   -2.2713   -1.1571   -1.0338 C   0  0  0  0  0  0  0  0  0  0  0  0
   -1.5480   -0.0179   -0.2422 C   0  0  0  0  0  0  0  0  0  0  0  0
   -2.7178    0.8933   -0.0162 C   0  0  0  0  0  0  0  0  0  0  0  0
   -3.7556    0.5140   -0.8510 C   0  0  0  0  0  0  0  0  0  0  0  0
   -3.4932   -0.5906   -1.6108 O   0  0  0  0  0  0  0  0  0  0  0  0
   -4.9540    1.2023   -0.9114 C   0  0  0  0  0  0  0  0  0  0  0  0
   -5.1243    2.3123   -0.0810 C   0  0  0  0  0  0  0  0  0  0  0  0
   -4.0935    2.7111    0.7840 C   0  0  0  0  0  0  0  0  0  0  0  0
   -2.8904    1.9967    0.8036 C   0  0  0  0  0  0  0  0  0  0  0  0
   -1.8499    2.3777    1.6665 O   0  0  0  0  0  0  0  0  0  0  0  0
   -1.9672    3.4707    2.5118 C   0  0  0  0  0  0  0  0  0  0  0  0
   -1.0609    3.8227    3.2576 O   0  0  0  0  0  0  0  0  0  0  0  0
   -3.2416    4.2068    2.4753 C   0  0  0  0  0  0  0  0  0  0  0  0
   -4.2461    3.8578    1.6662 C   0  0  0  0  0  0  0  0  0  0  0  0
   -0.7862   -0.4808    1.0011 C   0  0  0  0  0  0  0  0  0  0  0  0
   -1.4872   -1.1224    2.0577 C   0  0  0  0  0  0  0  0  0  0  0  0
   -0.8145   -1.7240    3.1223 C   0  0  0  0  0  0  0  0  0  0  0  0
    0.5680   -1.7060    3.1576 C   0  0  0  0  0  0  0  0  0  0  0  0
    1.2895   -1.0582    2.1497 C   0  0  0  0  0  0  0  0  0  0  0  0
    0.6351   -0.3741    1.0966 C   0  0  0  0  0  0  0  0  0  0  0  0
    1.4455    0.3290    0.1654 N   0  0  0  0  0  0  0  0  0  0  0  0
    2.8300    0.0611   -0.0167 C   0  0  0  0  0  0  0  0  0  0  0  0
    3.5154   -0.6617    0.9671 C   0  0  0  0  0  0  0  0  0  0  0  0
    2.7686   -1.1359    2.1471 C   0  0  0  0  0  0  0  0  0  0  0  0
    3.3593   -1.6369    3.1026 O   0  0  0  0  0  0  0  0  0  0  0  0
    4.8878   -0.9226    0.8675 C   0  0  0  0  0  0  0  0  0  0  0  0
    5.6089   -0.4696   -0.2374 C   0  0  0  0  0  0  0  0  0  0  0  0
    4.9617    0.2378   -1.2508 C   0  0  0  0  0  0  0  0  0  0  0  0
    3.5745    0.4772   -1.1439 C   0  0  0  0  0  0  0  0  0  0  0  0
    2.9490    1.1750   -2.1556 O   0  0  0  0  0  0  0  0  0  0  0  0
    2.5135    0.2706   -3.1706 C   0  0  0  0  0  0  0  0  0  0  0  0
    5.5749    0.7196   -2.3789 O   0  0  0  0  0  0  0  0  0  0  0  0
    6.9928    0.6401   -2.4375 C   0  0  0  0  0  0  0  0  0  0  0  0
    1.0908    1.7348   -0.1001 C   0  0  0  0  0  0  0  0  0  0  0  0
    1.1570   -2.3642    4.2045 O   0  0  0  0  0  0  0  0  0  0  0  0
   -2.8545   -1.2227    1.9673 O   0  0  0  0  0  0  0  0  0  0  0  0
   -3.5386   -0.8588    3.1658 C   0  0  0  0  0  0  0  0  0  0  0  0
   -0.9179   -0.8139   -3.0536 O   0  0  0  0  0  0  0  0  0  0  0  0
    0.4989   -1.9776   -1.1999 H   0  0  0  0  0  0  0  0  0  0  0  0
    0.2432   -3.1656   -2.4448 H   0  0  0  0  0  0  0  0  0  0  0  0
   -0.5805   -3.3577   -0.8851 H   0  0  0  0  0  0  0  0  0  0  0  0
   -1.7587   -3.2525   -3.7968 H   0  0  0  0  0  0  0  0  0  0  0  0
   -2.8169   -3.5141   -2.3960 H   0  0  0  0  0  0  0  0  0  0  0  0
   -3.1191   -2.1843   -3.5417 H   0  0  0  0  0  0  0  0  0  0  0  0
   -2.6130   -1.9594   -0.3668 H   0  0  0  0  0  0  0  0  0  0  0  0
   -0.8916    0.5039   -0.9385 H   0  0  0  0  0  0  0  0  0  0  0  0
   -5.7413    0.8789   -1.5841 H   0  0  0  0  0  0  0  0  0  0  0  0
   -6.0640    2.8580   -0.1147 H   0  0  0  0  0  0  0  0  0  0  0  0
   -3.3154    5.0546    3.1453 H   0  0  0  0  0  0  0  0  0  0  0  0
   -5.1760    4.4155    1.6537 H   0  0  0  0  0  0  0  0  0  0  0  0
   -1.3505   -2.2566    3.9015 H   0  0  0  0  0  0  0  0  0  0  0  0
    5.3980   -1.4758    1.6537 H   0  0  0  0  0  0  0  0  0  0  0  0
    6.6704   -0.6906   -0.2767 H   0  0  0  0  0  0  0  0  0  0  0  0
    1.9069   -0.5419   -2.7576 H   0  0  0  0  0  0  0  0  0  0  0  0
    3.3653   -0.1391   -3.7233 H   0  0  0  0  0  0  0  0  0  0  0  0
    1.8918    0.8319   -3.8743 H   0  0  0  0  0  0  0  0  0  0  0  0
    7.3176    1.1383   -3.3560 H   0  0  0  0  0  0  0  0  0  0  0  0
    7.4560    1.1625   -1.5938 H   0  0  0  0  0  0  0  0  0  0  0  0
    7.3250   -0.4018   -2.4895 H   0  0  0  0  0  0  0  0  0  0  0  0
    0.2713    2.0807    0.5310 H   0  0  0  0  0  0  0  0  0  0  0  0
    0.7945    1.8781   -1.1438 H   0  0  0  0  0  0  0  0  0  0  0  0
    1.9250    2.4128    0.1225 H   0  0  0  0  0  0  0  0  0  0  0  0
    2.1318   -2.2528    4.1162 H   0  0  0  0  0  0  0  0  0  0  0  0
   -4.5669   -0.5997    2.8956 H   0  0  0  0  0  0  0  0  0  0  0  0
   -3.0873    0.0166    3.6467 H   0  0  0  0  0  0  0  0  0  0  0  0
   -3.5778   -1.7054    3.8578 H   0  0  0  0  0  0  0  0  0  0  0  0
   -0.5976   -1.2560   -3.8583 H   0  0  0  0  0  0  0  0  0  0  0  0
  1  2  1  0
  2  3  1  0
  2  4  1  0
  4  5  1  0
  5  6  1  0
  6  7  2  0
  7  8  1  0
  7  9  1  0
  9 10  2  0
 10 11  1  0
 11 12  2  0
 12 13  1  0
 13 14  1  0
 14 15  2  0
 14 16  1  0
 16 17  2  0
  5 18  1  0
 18 19  2  0
 19 20  1  0
 20 21  2  0
 21 22  1  0
 22 23  2  0
 23 24  1  0
 24 25  1  0
 25 26  2  0
 26 27  1  0
 27 28  2  0
 26 29  1  0
 29 30  2  0
 30 31  1  0
 31 32  2  0
 32 33  1  0
 33 34  1  0
 31 35  1  0
 35 36  1  0
 24 37  1  0
 21 38  1  0
 19 39  1  0
 39 40  1  0
  2 41  1  0
  8  4  1  0
 12  6  1  0
 17 11  1  0
 23 18  1  0
 27 22  1  0
 32 25  1  0
  1 42  1  0
  1 43  1  0
  1 44  1  0
  3 45  1  0
  3 46  1  0
  3 47  1  0
  4 48  1  0
  5 49  1  0
  9 50  1  0
 10 51  1  0
 16 52  1  0
 17 53  1  0
 20 54  1  0
 29 55  1  0
 30 56  1  0
 34 57  1  0
 34 58  1  0
 34 59  1  0
 36 60  1  0
 36 61  1  0
 36 62  1  0
 37 63  1  0
 37 64  1  0
 37 65  1  0
 38 66  1  0
 40 67  1  0
 40 68  1  0
 40 69  1  0
 41 70  1  0
M  END
>  <Name>  (266) 
Neoacrimarine-K

>  <PubChem ID>  (266) 
10626660

>  <CDB ID>  (266) 
CDB0266

>  <Smiles>  (266) 
CC(C)(C1C(C2=C(O1)C=CC3=C2OC(=O)C=C3)C4=C(C=C(C5=C4N(C6=C(C5=O)C=CC(=C6OC)OC)C)O)OC)O

>  <Chemical class>  (266) 
7-Oxygenated Coumarins

>  <Natural source>  (266) 
Citrus paradisi

>  <Molecular Formula>  (266) 
C31H29NO9

>  <InChI-Key>  (266) 
XRRKNHPPSZSNHE-UHFFFAOYSA-N

>  <Total Molweight>  (266) 
559.569

>  <cLogP>  (266) 
3.7106

>  <cLogS>  (266) 
-7.072

>  <H-Acceptors>  (266) 
10

>  <H-Donors>  (266) 
2

>  <Rotatable Bonds>  (266) 
5

>  <Polar Surface Area>  (266) 
123.99

$$$$
CDB0267
     RDKit          3D

 20 22  0  0  0  0  0  0  0  0999 V2000
   -0.1724   -1.9278    0.3194 C   0  0  0  0  0  0  0  0  0  0  0  0
    1.2078   -1.8612    0.5562 C   0  0  0  0  0  0  0  0  0  0  0  0
    1.8046   -0.6076    0.4359 C   0  0  0  0  0  0  0  0  0  0  0  0
    1.1190    0.5537    0.1011 C   0  0  0  0  0  0  0  0  0  0  0  0
    2.0930    1.5873    0.0888 C   0  0  0  0  0  0  0  0  0  0  0  0
    3.2917    0.9944    0.4128 C   0  0  0  0  0  0  0  0  0  0  0  0
    3.1257   -0.3378    0.6251 O   0  0  0  0  0  0  0  0  0  0  0  0
   -0.2630    0.4567   -0.1305 C   0  0  0  0  0  0  0  0  0  0  0  0
   -0.9069   -0.7849   -0.0208 C   0  0  0  0  0  0  0  0  0  0  0  0
   -2.3399   -0.8559   -0.2663 C   0  0  0  0  0  0  0  0  0  0  0  0
   -3.0143    0.2515   -0.5893 C   0  0  0  0  0  0  0  0  0  0  0  0
   -2.3645    1.5670   -0.7113 C   0  0  0  0  0  0  0  0  0  0  0  0
   -3.0154    2.5614   -1.0095 O   0  0  0  0  0  0  0  0  0  0  0  0
   -0.9993    1.6149   -0.4738 O   0  0  0  0  0  0  0  0  0  0  0  0
   -0.6668   -2.8938    0.4059 H   0  0  0  0  0  0  0  0  0  0  0  0
    1.7891   -2.7369    0.8203 H   0  0  0  0  0  0  0  0  0  0  0  0
    1.9348    2.6339   -0.1300 H   0  0  0  0  0  0  0  0  0  0  0  0
    4.3019    1.3622    0.5281 H   0  0  0  0  0  0  0  0  0  0  0  0
   -2.8445   -1.8125   -0.1834 H   0  0  0  0  0  0  0  0  0  0  0  0
   -4.0808    0.2354   -0.7787 H   0  0  0  0  0  0  0  0  0  0  0  0
  1  2  1  0
  2  3  2  0
  3  4  1  0
  4  5  1  0
  5  6  2  0
  6  7  1  0
  4  8  2  0
  8  9  1  0
  9 10  1  0
 10 11  2  0
 11 12  1  0
 12 13  2  0
 12 14  1  0
  9  1  2  0
  7  3  1  0
 14  8  1  0
  1 15  1  0
  2 16  1  0
  5 17  1  0
  6 18  1  0
 10 19  1  0
 11 20  1  0
M  END
>  <Name>  (267) 
Angelicin (Isopsoralen)

>  <PubChem ID>  (267) 
10658

>  <CDB ID>  (267) 
CDB0267

>  <Smiles>  (267) 
C1=CC2=C(C=CO2)C3=C1C=CC(=O)O3

>  <Chemical class>  (267) 
7-Oxygenated Coumarins

>  <Natural source>  (267) 
Archangelica officinalis

>  <Molecular Formula>  (267) 
C11H6O3

>  <InChI-Key>  (267) 
XDROKJSWHURZGO-UHFFFAOYSA-N

>  <Total Molweight>  (267) 
186.166

>  <cLogP>  (267) 
1.949

>  <cLogS>  (267) 
-3.529

>  <H-Acceptors>  (267) 
3

>  <H-Donors>  (267) 
0

>  <Rotatable Bonds>  (267) 
0

>  <Polar Surface Area>  (267) 
39.44

$$$$
CDB0268
     RDKit          3D

 27 29  0  0  0  0  0  0  0  0999 V2000
    4.3603    0.9363    0.2058 C   0  0  0  0  0  0  0  0  0  0  0  0
    3.3965   -0.2083   -0.0117 C   0  0  0  0  0  0  0  0  0  0  0  0
    3.8884   -1.4366   -0.2598 C   0  0  0  0  0  0  0  0  0  0  0  0
    1.9720   -0.0156    0.0402 C   0  0  0  0  0  0  0  0  0  0  0  0
    0.9072   -0.9002   -0.1248 C   0  0  0  0  0  0  0  0  0  0  0  0
   -0.3048   -0.1789    0.0298 C   0  0  0  0  0  0  0  0  0  0  0  0
    0.0737    1.1263    0.2848 C   0  0  0  0  0  0  0  0  0  0  0  0
    1.4256    1.2297    0.2922 O   0  0  0  0  0  0  0  0  0  0  0  0
   -0.8202    2.1734    0.5009 C   0  0  0  0  0  0  0  0  0  0  0  0
   -2.1850    1.8563    0.4512 C   0  0  0  0  0  0  0  0  0  0  0  0
   -2.6169    0.5488    0.1963 C   0  0  0  0  0  0  0  0  0  0  0  0
   -1.6774   -0.4712   -0.0149 C   0  0  0  0  0  0  0  0  0  0  0  0
   -2.1053   -1.7945   -0.2730 O   0  0  0  0  0  0  0  0  0  0  0  0
   -3.4501   -2.1278   -0.3261 C   0  0  0  0  0  0  0  0  0  0  0  0
   -3.8365   -3.2692   -0.5486 O   0  0  0  0  0  0  0  0  0  0  0  0
   -4.4143   -1.0380   -0.1009 C   0  0  0  0  0  0  0  0  0  0  0  0
   -4.0337    0.2191    0.1446 C   0  0  0  0  0  0  0  0  0  0  0  0
    4.1939    1.7172   -0.5438 H   0  0  0  0  0  0  0  0  0  0  0  0
    4.2107    1.3718    1.1995 H   0  0  0  0  0  0  0  0  0  0  0  0
    5.4072    0.6229    0.1336 H   0  0  0  0  0  0  0  0  0  0  0  0
    4.9596   -1.6123   -0.3050 H   0  0  0  0  0  0  0  0  0  0  0  0
    3.2651   -2.3082   -0.4265 H   0  0  0  0  0  0  0  0  0  0  0  0
    0.9877   -1.9572   -0.3350 H   0  0  0  0  0  0  0  0  0  0  0  0
   -0.4698    3.1799    0.6969 H   0  0  0  0  0  0  0  0  0  0  0  0
   -2.9086    2.6527    0.6160 H   0  0  0  0  0  0  0  0  0  0  0  0
   -5.4594   -1.3192   -0.1465 H   0  0  0  0  0  0  0  0  0  0  0  0
   -4.7659    1.0027    0.3069 H   0  0  0  0  0  0  0  0  0  0  0  0
  1  2  1  0
  2  3  2  0
  2  4  1  0
  4  5  2  0
  5  6  1  0
  6  7  1  0
  7  8  1  0
  7  9  2  0
  9 10  1  0
 10 11  2  0
 11 12  1  0
 12 13  1  0
 13 14  1  0
 14 15  2  0
 14 16  1  0
 16 17  2  0
  8  4  1  0
 12  6  2  0
 17 11  1  0
  1 18  1  0
  1 19  1  0
  1 20  1  0
  3 21  1  0
  3 22  1  0
  5 23  1  0
  9 24  1  0
 10 25  1  0
 16 26  1  0
 17 27  1  0
M  END
>  <Name>  (268) 
Oroselone (Kvannin)

>  <PubChem ID>  (268) 
74477

>  <CDB ID>  (268) 
CDB0268

>  <Smiles>  (268) 
CC(=C)C1=CC2=C(O1)C=CC3=C2OC(=O)C=C3

>  <Chemical class>  (268) 
7-Oxygenated Coumarins

>  <Natural source>  (268) 
Peucedanum oreoselinum

>  <Molecular Formula>  (268) 
C14H10O3

>  <InChI-Key>  (268) 
FQCPXIJRWHRHIP-UHFFFAOYSA-N

>  <Total Molweight>  (268) 
226.23

>  <cLogP>  (268) 
2.9263

>  <cLogS>  (268) 
-4.087

>  <H-Acceptors>  (268) 
3

>  <H-Donors>  (268) 
0

>  <Rotatable Bonds>  (268) 
1

>  <Polar Surface Area>  (268) 
39.44

$$$$
CDB0269
     RDKit          3D

 30 32  0  0  0  0  0  0  0  0999 V2000
   -3.7956   -0.8545    0.0838 C   0  0  0  0  0  0  0  0  0  0  0  0
   -3.0586    0.4825    0.1185 C   0  0  0  0  0  0  0  0  0  0  0  0
   -3.5845    1.4215   -0.9682 C   0  0  0  0  0  0  0  0  0  0  0  0
   -1.5780    0.2723    0.0273 C   0  0  0  0  0  0  0  0  0  0  0  0
   -0.5841    0.1100    0.9752 C   0  0  0  0  0  0  0  0  0  0  0  0
    0.6336   -0.0678    0.2690 C   0  0  0  0  0  0  0  0  0  0  0  0
    0.3004   -0.0095   -1.0774 C   0  0  0  0  0  0  0  0  0  0  0  0
   -1.0364    0.1932   -1.2261 O   0  0  0  0  0  0  0  0  0  0  0  0
    1.2187   -0.1433   -2.1171 C   0  0  0  0  0  0  0  0  0  0  0  0
    2.5569   -0.3492   -1.7537 C   0  0  0  0  0  0  0  0  0  0  0  0
    2.9421   -0.4156   -0.4090 C   0  0  0  0  0  0  0  0  0  0  0  0
    1.9818   -0.2753    0.6039 C   0  0  0  0  0  0  0  0  0  0  0  0
    2.3646   -0.3403    1.9643 O   0  0  0  0  0  0  0  0  0  0  0  0
    3.6834   -0.5421    2.3418 C   0  0  0  0  0  0  0  0  0  0  0  0
    4.0308   -0.5979    3.5155 O   0  0  0  0  0  0  0  0  0  0  0  0
    4.6694   -0.6883    1.2583 C   0  0  0  0  0  0  0  0  0  0  0  0
    4.3319   -0.6303   -0.0333 C   0  0  0  0  0  0  0  0  0  0  0  0
   -3.3189    1.0894    1.3890 O   0  0  0  0  0  0  0  0  0  0  0  0
   -4.8740   -0.7094    0.2160 H   0  0  0  0  0  0  0  0  0  0  0  0
   -3.4687   -1.5074    0.9022 H   0  0  0  0  0  0  0  0  0  0  0  0
   -3.6298   -1.3851   -0.8602 H   0  0  0  0  0  0  0  0  0  0  0  0
   -4.6476    1.6390   -0.8128 H   0  0  0  0  0  0  0  0  0  0  0  0
   -3.4630    0.9975   -1.9708 H   0  0  0  0  0  0  0  0  0  0  0  0
   -3.0629    2.3858   -0.9422 H   0  0  0  0  0  0  0  0  0  0  0  0
   -0.7257    0.1138    2.0477 H   0  0  0  0  0  0  0  0  0  0  0  0
    0.9060   -0.0909   -3.1534 H   0  0  0  0  0  0  0  0  0  0  0  0
    3.2976   -0.4582   -2.5440 H   0  0  0  0  0  0  0  0  0  0  0  0
    5.6935   -0.8469    1.5740 H   0  0  0  0  0  0  0  0  0  0  0  0
    5.0797   -0.7414   -0.8111 H   0  0  0  0  0  0  0  0  0  0  0  0
   -2.8626    1.9485    1.3927 H   0  0  0  0  0  0  0  0  0  0  0  0
  1  2  1  0
  2  3  1  0
  2  4  1  0
  4  5  2  0
  5  6  1  0
  6  7  1  0
  7  8  1  0
  7  9  2  0
  9 10  1  0
 10 11  2  0
 11 12  1  0
 12 13  1  0
 13 14  1  0
 14 15  2  0
 14 16  1  0
 16 17  2  0
  2 18  1  0
  8  4  1  0
 12  6  2  0
 17 11  1  0
  1 19  1  0
  1 20  1  0
  1 21  1  0
  3 22  1  0
  3 23  1  0
  3 24  1  0
  5 25  1  0
  9 26  1  0
 10 27  1  0
 16 28  1  0
 17 29  1  0
 18 30  1  0
M  END
>  <Name>  (269) 
Oroselol

>  <PubChem ID>  (269) 
160600

>  <CDB ID>  (269) 
CDB0269

>  <Smiles>  (269) 
CC(C)(C1=CC2=C(O1)C=CC3=C2OC(=O)C=C3)O

>  <Chemical class>  (269) 
7-Oxygenated Coumarins

>  <Natural source>  (269) 
Peucedanum oreoselinum

>  <Molecular Formula>  (269) 
C14H12O4

>  <InChI-Key>  (269) 
KDJVHSVOXOZBDR-UHFFFAOYSA-N

>  <Total Molweight>  (269) 
244.245

>  <cLogP>  (269) 
2.2789

>  <cLogS>  (269) 
-3.922

>  <H-Acceptors>  (269) 
4

>  <H-Donors>  (269) 
1

>  <Rotatable Bonds>  (269) 
1

>  <Polar Surface Area>  (269) 
59.67

$$$$
CDB0270
     RDKit          3D

 33 35  0  0  0  0  0  0  0  0999 V2000
    2.9043    0.4598    1.8411 C   0  0  0  0  0  0  0  0  0  0  0  0
    2.5717    0.0021    0.4134 C   0  0  0  0  0  0  0  0  0  0  0  0
    3.1897   -1.3725    0.1185 C   0  0  0  0  0  0  0  0  0  0  0  0
    1.0733   -0.0794    0.2519 C   0  0  0  0  0  0  0  0  0  0  0  0
    0.1670    0.5579   -0.5761 C   0  0  0  0  0  0  0  0  0  0  0  0
   -1.1178    0.0523   -0.2512 C   0  0  0  0  0  0  0  0  0  0  0  0
   -0.9130   -0.8710    0.7649 C   0  0  0  0  0  0  0  0  0  0  0  0
    0.4096   -0.9535    1.0717 O   0  0  0  0  0  0  0  0  0  0  0  0
   -1.9308   -1.6025    1.3742 C   0  0  0  0  0  0  0  0  0  0  0  0
   -3.2349   -1.3729    0.9140 C   0  0  0  0  0  0  0  0  0  0  0  0
   -3.4918   -0.4514   -0.1087 C   0  0  0  0  0  0  0  0  0  0  0  0
   -2.4346    0.2623   -0.6927 C   0  0  0  0  0  0  0  0  0  0  0  0
   -2.6882    1.1947   -1.7265 O   0  0  0  0  0  0  0  0  0  0  0  0
   -3.9713    1.4342   -2.1937 C   0  0  0  0  0  0  0  0  0  0  0  0
   -4.2077    2.2381   -3.0879 O   0  0  0  0  0  0  0  0  0  0  0  0
   -5.0611    0.6713   -1.5628 C   0  0  0  0  0  0  0  0  0  0  0  0
   -4.8466   -0.2142   -0.5855 C   0  0  0  0  0  0  0  0  0  0  0  0
    2.9936    0.9781   -0.5548 O   0  0  0  0  0  0  0  0  0  0  0  0
    4.3813    1.2614   -0.6260 C   0  0  0  0  0  0  0  0  0  0  0  0
    3.9850    0.4734    2.0182 H   0  0  0  0  0  0  0  0  0  0  0  0
    2.4602   -0.1997    2.5953 H   0  0  0  0  0  0  0  0  0  0  0  0
    2.5392    1.4779    2.0205 H   0  0  0  0  0  0  0  0  0  0  0  0
    4.2723   -1.3713    0.2839 H   0  0  0  0  0  0  0  0  0  0  0  0
    3.0276   -1.6578   -0.9277 H   0  0  0  0  0  0  0  0  0  0  0  0
    2.7650   -2.1565    0.7556 H   0  0  0  0  0  0  0  0  0  0  0  0
    0.4114    1.2995   -1.3245 H   0  0  0  0  0  0  0  0  0  0  0  0
   -1.7166   -2.3121    2.1645 H   0  0  0  0  0  0  0  0  0  0  0  0
   -4.0512   -1.9294    1.3707 H   0  0  0  0  0  0  0  0  0  0  0  0
   -6.0555    0.8729   -1.9421 H   0  0  0  0  0  0  0  0  0  0  0  0
   -5.6687   -0.7625   -0.1385 H   0  0  0  0  0  0  0  0  0  0  0  0
    4.5283    2.0159   -1.4044 H   0  0  0  0  0  0  0  0  0  0  0  0
    4.9565    0.3770   -0.9098 H   0  0  0  0  0  0  0  0  0  0  0  0
    4.7537    1.6778    0.3129 H   0  0  0  0  0  0  0  0  0  0  0  0
  1  2  1  0
  2  3  1  0
  2  4  1  0
  4  5  2  0
  5  6  1  0
  6  7  1  0
  7  8  1  0
  7  9  2  0
  9 10  1  0
 10 11  2  0
 11 12  1  0
 12 13  1  0
 13 14  1  0
 14 15  2  0
 14 16  1  0
 16 17  2  0
  2 18  1  0
 18 19  1  0
  8  4  1  0
 12  6  2  0
 17 11  1  0
  1 20  1  0
  1 21  1  0
  1 22  1  0
  3 23  1  0
  3 24  1  0
  3 25  1  0
  5 26  1  0
  9 27  1  0
 10 28  1  0
 16 29  1  0
 17 30  1  0
 19 31  1  0
 19 32  1  0
 19 33  1  0
M  END
>  <Name>  (270) 
Archangin

>  <PubChem ID>  (270) 
131751058

>  <CDB ID>  (270) 
CDB0270

>  <Smiles>  (270) 
CC(C)(C1=CC2=C(O1)C=CC3=C2OC(=O)C=C3)OC

>  <Chemical class>  (270) 
7-Oxygenated Coumarins

>  <Natural source>  (270) 
Angelica archangelica

>  <Molecular Formula>  (270) 
C15H14O4

>  <InChI-Key>  (270) 
ZTUJKPWRKVDGPL-UHFFFAOYSA-N

>  <Total Molweight>  (270) 
258.272

>  <cLogP>  (270) 
2.7068

>  <cLogS>  (270) 
-4.05

>  <H-Acceptors>  (270) 
4

>  <H-Donors>  (270) 
0

>  <Rotatable Bonds>  (270) 
2

>  <Polar Surface Area>  (270) 
48.67

$$$$
CDB0271
     RDKit          3D

 51 54  0  0  0  0  0  0  0  0999 V2000
   -0.5664    0.5384   -3.7916 C   0  0  0  0  0  0  0  0  0  0  0  0
   -0.0873    1.2743   -2.5302 C   0  0  0  0  0  0  0  0  0  0  0  0
    0.4839    2.6332   -2.9703 C   0  0  0  0  0  0  0  0  0  0  0  0
    0.9525    0.5127   -1.7561 C   0  0  0  0  0  0  0  0  0  0  0  0
    1.8183    0.8634   -0.7354 C   0  0  0  0  0  0  0  0  0  0  0  0
    2.5225   -0.3119   -0.3685 C   0  0  0  0  0  0  0  0  0  0  0  0
    2.0427   -1.3141   -1.2000 C   0  0  0  0  0  0  0  0  0  0  0  0
    1.0969   -0.8181   -2.0425 O   0  0  0  0  0  0  0  0  0  0  0  0
    2.4758   -2.6380   -1.1593 C   0  0  0  0  0  0  0  0  0  0  0  0
    3.4552   -2.9517   -0.2063 C   0  0  0  0  0  0  0  0  0  0  0  0
    3.9681   -1.9752    0.6564 C   0  0  0  0  0  0  0  0  0  0  0  0
    3.5037   -0.6542    0.5760 C   0  0  0  0  0  0  0  0  0  0  0  0
    4.0181    0.3379    1.4432 O   0  0  0  0  0  0  0  0  0  0  0  0
    4.9870    0.0460    2.3910 C   0  0  0  0  0  0  0  0  0  0  0  0
    5.4484    0.8962    3.1433 O   0  0  0  0  0  0  0  0  0  0  0  0
    5.4517   -1.3494    2.4578 C   0  0  0  0  0  0  0  0  0  0  0  0
    4.9812   -2.3031    1.6488 C   0  0  0  0  0  0  0  0  0  0  0  0
   -1.2072    1.5876   -1.6792 O   0  0  0  0  0  0  0  0  0  0  0  0
   -1.8296    0.4967   -0.9976 C   0  0  0  0  0  0  0  0  0  0  0  0
   -3.3478    0.8161   -0.9131 C   0  0  0  0  0  0  0  0  0  0  0  0
   -3.6841    1.5360    0.3984 C   0  0  0  0  0  0  0  0  0  0  0  0
   -3.1400    0.8041    1.6417 C   0  0  0  0  0  0  0  0  0  0  0  0
   -2.0652   -0.2234    1.2611 C   0  0  0  0  0  0  0  0  0  0  0  0
   -1.2074    0.3538    0.2832 O   0  0  0  0  0  0  0  0  0  0  0  0
   -1.2479   -0.6388    2.4917 C   0  0  0  0  0  0  0  0  0  0  0  0
   -2.0307   -1.3704    3.4312 O   0  0  0  0  0  0  0  0  0  0  0  0
   -4.1837    0.1708    2.3940 O   0  0  0  0  0  0  0  0  0  0  0  0
   -5.1112    1.6815    0.5267 O   0  0  0  0  0  0  0  0  0  0  0  0
   -4.1572   -0.3786   -0.9651 O   0  0  0  0  0  0  0  0  0  0  0  0
    0.2530    0.3910   -4.5045 H   0  0  0  0  0  0  0  0  0  0  0  0
   -0.9852   -0.4483   -3.5688 H   0  0  0  0  0  0  0  0  0  0  0  0
   -1.3630    1.1030   -4.2899 H   0  0  0  0  0  0  0  0  0  0  0  0
    0.7560    3.2510   -2.1060 H   0  0  0  0  0  0  0  0  0  0  0  0
    1.3727    2.5170   -3.6006 H   0  0  0  0  0  0  0  0  0  0  0  0
   -0.2644    3.2082   -3.5288 H   0  0  0  0  0  0  0  0  0  0  0  0
    1.9088    1.8431   -0.2870 H   0  0  0  0  0  0  0  0  0  0  0  0
    2.0677   -3.3845   -1.8301 H   0  0  0  0  0  0  0  0  0  0  0  0
    3.8107   -3.9789   -0.1470 H   0  0  0  0  0  0  0  0  0  0  0  0
    6.2043   -1.5580    3.2085 H   0  0  0  0  0  0  0  0  0  0  0  0
    5.3411   -3.3238    1.7209 H   0  0  0  0  0  0  0  0  0  0  0  0
   -1.6995   -0.4459   -1.5391 H   0  0  0  0  0  0  0  0  0  0  0  0
   -3.6708    1.4268   -1.7643 H   0  0  0  0  0  0  0  0  0  0  0  0
   -3.2496    2.5422    0.3638 H   0  0  0  0  0  0  0  0  0  0  0  0
   -2.7067    1.5669    2.3009 H   0  0  0  0  0  0  0  0  0  0  0  0
   -2.5291   -1.1372    0.8663 H   0  0  0  0  0  0  0  0  0  0  0  0
   -0.4046   -1.2689    2.1888 H   0  0  0  0  0  0  0  0  0  0  0  0
   -0.8200    0.2354    2.9945 H   0  0  0  0  0  0  0  0  0  0  0  0
   -2.9283   -0.9751    3.4341 H   0  0  0  0  0  0  0  0  0  0  0  0
   -4.9583    0.7635    2.2910 H   0  0  0  0  0  0  0  0  0  0  0  0
   -5.4752    0.8508    0.1508 H   0  0  0  0  0  0  0  0  0  0  0  0
   -3.9997   -0.8001   -1.8297 H   0  0  0  0  0  0  0  0  0  0  0  0
  1  2  1  0
  2  3  1  0
  2  4  1  0
  4  5  2  0
  5  6  1  0
  6  7  1  0
  7  8  1  0
  7  9  2  0
  9 10  1  0
 10 11  2  0
 11 12  1  0
 12 13  1  0
 13 14  1  0
 14 15  2  0
 14 16  1  0
 16 17  2  0
  2 18  1  0
 18 19  1  0
 19 20  1  0
 20 21  1  0
 21 22  1  0
 22 23  1  0
 23 24  1  0
 23 25  1  0
 25 26  1  0
 22 27  1  0
 21 28  1  0
 20 29  1  0
  8  4  1  0
 12  6  2  0
 17 11  1  0
 24 19  1  0
  1 30  1  0
  1 31  1  0
  1 32  1  0
  3 33  1  0
  3 34  1  0
  3 35  1  0
  5 36  1  0
  9 37  1  0
 10 38  1  0
 16 39  1  0
 17 40  1  0
 19 41  1  0
 20 42  1  0
 21 43  1  0
 22 44  1  0
 23 45  1  0
 25 46  1  0
 25 47  1  0
 26 48  1  0
 27 49  1  0
 28 50  1  0
 29 51  1  0
M  END
>  <Name>  (271) 
Edulisin Vi

>  <PubChem ID>  (271) 
131753091

>  <CDB ID>  (271) 
CDB0271

>  <Smiles>  (271) 
CC(C)(C1=CC2=C(O1)C=CC3=C2OC(=O)C=C3)OC4C(C(C(C(O4)CO)O)O)O

>  <Chemical class>  (271) 
7-Oxygenated Coumarins

>  <Natural source>  (271) 
Angelica edulis

>  <Molecular Formula>  (271) 
C20H22O9

>  <InChI-Key>  (271) 
RGKKEFIQHJTNIY-UHFFFAOYSA-N

>  <Total Molweight>  (271) 
406.386

>  <cLogP>  (271) 
0.4418

>  <cLogS>  (271) 
-3.622

>  <H-Acceptors>  (271) 
9

>  <H-Donors>  (271) 
4

>  <Rotatable Bonds>  (271) 
4

>  <Polar Surface Area>  (271) 
138.82

$$$$
CDB0272
     RDKit          3D

 32 34  0  0  0  0  0  0  0  0999 V2000
   -2.5951    1.0947   -0.9382 C   0  0  0  0  0  0  0  0  0  0  0  0
   -2.3693   -0.1164   -0.0164 C   0  0  0  0  0  0  0  0  0  0  0  0
   -1.7566    0.2576    1.3540 C   0  0  0  0  0  0  0  0  0  0  0  0
   -0.3350    0.7910    1.1906 C   0  0  0  0  0  0  0  0  0  0  0  0
    0.4454   -0.0417    0.2196 C   0  0  0  0  0  0  0  0  0  0  0  0
   -0.2019   -0.9120   -0.6598 C   0  0  0  0  0  0  0  0  0  0  0  0
   -1.5577   -1.0821   -0.7146 O   0  0  0  0  0  0  0  0  0  0  0  0
    0.5357   -1.6970   -1.5508 C   0  0  0  0  0  0  0  0  0  0  0  0
    1.9289   -1.6039   -1.5960 C   0  0  0  0  0  0  0  0  0  0  0  0
    2.5918   -0.7203   -0.7457 C   0  0  0  0  0  0  0  0  0  0  0  0
    1.8428    0.0492    0.1468 C   0  0  0  0  0  0  0  0  0  0  0  0
    2.4917    0.9579    1.0140 O   0  0  0  0  0  0  0  0  0  0  0  0
    3.8706    1.1137    1.0124 C   0  0  0  0  0  0  0  0  0  0  0  0
    4.4433    1.9023    1.7550 O   0  0  0  0  0  0  0  0  0  0  0  0
    4.6313    0.2815    0.0657 C   0  0  0  0  0  0  0  0  0  0  0  0
    4.0391   -0.5822   -0.7640 C   0  0  0  0  0  0  0  0  0  0  0  0
   -2.5568    1.1989    2.0726 O   0  0  0  0  0  0  0  0  0  0  0  0
   -3.7291   -0.8001    0.2050 C   0  0  0  0  0  0  0  0  0  0  0  0
   -1.6578    1.6091   -1.1730 H   0  0  0  0  0  0  0  0  0  0  0  0
   -3.0102    0.7728   -1.9007 H   0  0  0  0  0  0  0  0  0  0  0  0
   -3.2837    1.8214   -0.4958 H   0  0  0  0  0  0  0  0  0  0  0  0
   -1.7045   -0.6506    1.9698 H   0  0  0  0  0  0  0  0  0  0  0  0
   -0.3485    1.8327    0.8469 H   0  0  0  0  0  0  0  0  0  0  0  0
    0.1483    0.7961    2.1756 H   0  0  0  0  0  0  0  0  0  0  0  0
    0.0182   -2.3816   -2.2192 H   0  0  0  0  0  0  0  0  0  0  0  0
    2.4790   -2.2220   -2.3009 H   0  0  0  0  0  0  0  0  0  0  0  0
    5.7064    0.4130    0.0818 H   0  0  0  0  0  0  0  0  0  0  0  0
    4.6200   -1.1850   -1.4535 H   0  0  0  0  0  0  0  0  0  0  0  0
   -2.4640    2.0710    1.6523 H   0  0  0  0  0  0  0  0  0  0  0  0
   -4.4486   -0.1352    0.6938 H   0  0  0  0  0  0  0  0  0  0  0  0
   -3.6150   -1.7004    0.8199 H   0  0  0  0  0  0  0  0  0  0  0  0
   -4.1586   -1.1328   -0.7473 H   0  0  0  0  0  0  0  0  0  0  0  0
  1  2  1  0
  2  3  1  0
  3  4  1  0
  4  5  1  0
  5  6  2  0
  6  7  1  0
  6  8  1  0
  8  9  2  0
  9 10  1  0
 10 11  2  0
 11 12  1  0
 12 13  1  0
 13 14  2  0
 13 15  1  0
 15 16  2  0
  3 17  1  0
  2 18  1  0
  7  2  1  0
 11  5  1  0
 16 10  1  0
  1 19  1  0
  1 20  1  0
  1 21  1  0
  3 22  1  0
  4 23  1  0
  4 24  1  0
  8 25  1  0
  9 26  1  0
 15 27  1  0
 16 28  1  0
 17 29  1  0
 18 30  1  0
 18 31  1  0
 18 32  1  0
M  END
>  <Name>  (272) 
Lomatin (Libanotin A)

>  <PubChem ID>  (272) 
600670

>  <CDB ID>  (272) 
CDB0272

>  <Smiles>  (272) 
CC1(C(CC2=C(O1)C=CC3=C2OC(=O)C=C3)O)C

>  <Chemical class>  (272) 
7-Oxygenated Coumarins

>  <Natural source>  (272) 
Lomatium nuttallii, Libanotis buchtormensis

>  <Molecular Formula>  (272) 
C14H14O4

>  <InChI-Key>  (272) 
UJSHBYQGQRPVNO-LLVKDONJSA-N

>  <Total Molweight>  (272) 
246.261

>  <cLogP>  (272) 
1.8358

>  <cLogS>  (272) 
-3.095

>  <H-Acceptors>  (272) 
4

>  <H-Donors>  (272) 
1

>  <Rotatable Bonds>  (272) 
0

>  <Polar Surface Area>  (272) 
55.76

$$$$
CDB0273
     RDKit          3D

 53 56  0  0  0  0  0  0  0  0999 V2000
    0.9048   -3.5343   -1.2022 C   0  0  0  0  0  0  0  0  0  0  0  0
    1.4878   -2.3251   -0.4485 C   0  0  0  0  0  0  0  0  0  0  0  0
    0.3843   -1.2476   -0.2779 C   0  0  0  0  0  0  0  0  0  0  0  0
    0.9872    0.0245    0.3217 C   0  0  0  0  0  0  0  0  0  0  0  0
    2.2914    0.3754   -0.3268 C   0  0  0  0  0  0  0  0  0  0  0  0
    3.0027   -0.5734   -1.0610 C   0  0  0  0  0  0  0  0  0  0  0  0
    2.5800   -1.8563   -1.2658 O   0  0  0  0  0  0  0  0  0  0  0  0
    4.2166   -0.2360   -1.6664 C   0  0  0  0  0  0  0  0  0  0  0  0
    4.7487    1.0486   -1.5275 C   0  0  0  0  0  0  0  0  0  0  0  0
    4.0605    2.0065   -0.7848 C   0  0  0  0  0  0  0  0  0  0  0  0
    2.8439    1.6576   -0.1958 C   0  0  0  0  0  0  0  0  0  0  0  0
    2.1188    2.6148    0.5502 O   0  0  0  0  0  0  0  0  0  0  0  0
    2.5711    3.9173    0.7046 C   0  0  0  0  0  0  0  0  0  0  0  0
    1.9292    4.7643    1.3147 O   0  0  0  0  0  0  0  0  0  0  0  0
    3.8683    4.2468    0.0916 C   0  0  0  0  0  0  0  0  0  0  0  0
    4.5742    3.3556   -0.6106 C   0  0  0  0  0  0  0  0  0  0  0  0
   -0.6797   -1.7801    0.5222 O   0  0  0  0  0  0  0  0  0  0  0  0
   -1.8137   -0.9214    0.6837 C   0  0  0  0  0  0  0  0  0  0  0  0
   -2.8915   -1.6984    1.4926 C   0  0  0  0  0  0  0  0  0  0  0  0
   -4.3129   -1.3005    1.0434 C   0  0  0  0  0  0  0  0  0  0  0  0
   -4.3323    0.1936    0.6927 C   0  0  0  0  0  0  0  0  0  0  0  0
   -3.3764    0.4566   -0.4968 C   0  0  0  0  0  0  0  0  0  0  0  0
   -2.3272   -0.5282   -0.5907 O   0  0  0  0  0  0  0  0  0  0  0  0
   -2.7799    1.8705   -0.5297 C   0  0  0  0  0  0  0  0  0  0  0  0
   -3.7806    2.8506   -0.2761 O   0  0  0  0  0  0  0  0  0  0  0  0
   -3.9378    0.9369    1.8577 O   0  0  0  0  0  0  0  0  0  0  0  0
   -4.7547   -2.0806   -0.0731 O   0  0  0  0  0  0  0  0  0  0  0  0
   -2.7260   -1.4235    2.8973 O   0  0  0  0  0  0  0  0  0  0  0  0
    2.0540   -2.8337    0.8897 C   0  0  0  0  0  0  0  0  0  0  0  0
    0.0940   -4.0156   -0.6460 H   0  0  0  0  0  0  0  0  0  0  0  0
    0.5205   -3.2307   -2.1829 H   0  0  0  0  0  0  0  0  0  0  0  0
    1.6810   -4.2840   -1.3965 H   0  0  0  0  0  0  0  0  0  0  0  0
   -0.0026   -1.0082   -1.2786 H   0  0  0  0  0  0  0  0  0  0  0  0
    1.1307   -0.0882    1.4032 H   0  0  0  0  0  0  0  0  0  0  0  0
    0.2786    0.8490    0.1819 H   0  0  0  0  0  0  0  0  0  0  0  0
    4.7542   -0.9841   -2.2448 H   0  0  0  0  0  0  0  0  0  0  0  0
    5.6976    1.2834   -2.0032 H   0  0  0  0  0  0  0  0  0  0  0  0
    4.2165    5.2615    0.2410 H   0  0  0  0  0  0  0  0  0  0  0  0
    5.5272    3.6205   -1.0556 H   0  0  0  0  0  0  0  0  0  0  0  0
   -1.4898   -0.0424    1.2520 H   0  0  0  0  0  0  0  0  0  0  0  0
   -2.7505   -2.7780    1.3665 H   0  0  0  0  0  0  0  0  0  0  0  0
   -5.0138   -1.4850    1.8659 H   0  0  0  0  0  0  0  0  0  0  0  0
   -5.3464    0.5120    0.4237 H   0  0  0  0  0  0  0  0  0  0  0  0
   -3.9677    0.3270   -1.4122 H   0  0  0  0  0  0  0  0  0  0  0  0
   -1.9867    1.9870    0.2155 H   0  0  0  0  0  0  0  0  0  0  0  0
   -2.3290    2.0605   -1.5101 H   0  0  0  0  0  0  0  0  0  0  0  0
   -3.3706    3.7198   -0.4443 H   0  0  0  0  0  0  0  0  0  0  0  0
   -4.1329    1.8745    1.6414 H   0  0  0  0  0  0  0  0  0  0  0  0
   -4.0127   -2.1477   -0.7044 H   0  0  0  0  0  0  0  0  0  0  0  0
   -3.0518   -0.5096    3.0389 H   0  0  0  0  0  0  0  0  0  0  0  0
    2.5434   -2.0350    1.4561 H   0  0  0  0  0  0  0  0  0  0  0  0
    1.2750   -3.2734    1.5208 H   0  0  0  0  0  0  0  0  0  0  0  0
    2.8249   -3.5940    0.7168 H   0  0  0  0  0  0  0  0  0  0  0  0
  1  2  1  0
  2  3  1  0
  3  4  1  0
  4  5  1  0
  5  6  2  0
  6  7  1  0
  6  8  1  0
  8  9  2  0
  9 10  1  0
 10 11  2  0
 11 12  1  0
 12 13  1  0
 13 14  2  0
 13 15  1  0
 15 16  2  0
  3 17  1  0
 17 18  1  0
 18 19  1  0
 19 20  1  0
 20 21  1  0
 21 22  1  0
 22 23  1  0
 22 24  1  0
 24 25  1  0
 21 26  1  0
 20 27  1  0
 19 28  1  0
  2 29  1  0
  7  2  1  0
 11  5  1  0
 16 10  1  0
 23 18  1  0
  1 30  1  0
  1 31  1  0
  1 32  1  0
  3 33  1  0
  4 34  1  0
  4 35  1  0
  8 36  1  0
  9 37  1  0
 15 38  1  0
 16 39  1  0
 18 40  1  0
 19 41  1  0
 20 42  1  0
 21 43  1  0
 22 44  1  0
 24 45  1  0
 24 46  1  0
 25 47  1  0
 26 48  1  0
 27 49  1  0
 28 50  1  0
 29 51  1  0
 29 52  1  0
 29 53  1  0
M  END
>  <Name>  (273) 
Praeroside Iv

>  <PubChem ID>  (273) 
44144278

>  <CDB ID>  (273) 
CDB0273

>  <Smiles>  (273) 
CC1(C(CC2=C(O1)C=CC3=C2OC(=O)C=C3)OC4C(C(C(C(O4)CO)O)O)O)C

>  <Chemical class>  (273) 
7-Oxygenated Coumarins

>  <Natural source>  (273) 
Peucedanum praeruptorum

>  <Molecular Formula>  (273) 
C20H24O9

>  <InChI-Key>  (273) 
BPBRRMGZTUDRDI-UHFFFAOYSA-N

>  <Total Molweight>  (273) 
408.402

>  <cLogP>  (273) 
-0.0012998

>  <cLogS>  (273) 
-2.795

>  <H-Acceptors>  (273) 
9

>  <H-Donors>  (273) 
4

>  <Rotatable Bonds>  (273) 
3

>  <Polar Surface Area>  (273) 
134.91

$$$$
CDB0274
     RDKit          3D

 44 46  0  0  0  0  0  0  0  0999 V2000
    5.4507   -0.1175    1.3700 C   0  0  0  0  0  0  0  0  0  0  0  0
    5.0854    0.5410    0.0763 C   0  0  0  0  0  0  0  0  0  0  0  0
    3.8566    0.6976   -0.4541 C   0  0  0  0  0  0  0  0  0  0  0  0
    3.6406    1.3628   -1.7819 C   0  0  0  0  0  0  0  0  0  0  0  0
    2.6331    0.2738    0.2808 C   0  0  0  0  0  0  0  0  0  0  0  0
    2.4704    0.3732    1.4854 O   0  0  0  0  0  0  0  0  0  0  0  0
    1.7345   -0.2243   -0.6052 O   0  0  0  0  0  0  0  0  0  0  0  0
    0.4836   -0.6747   -0.0473 C   0  0  0  0  0  0  0  0  0  0  0  0
   -0.4579    0.5154    0.1390 C   0  0  0  0  0  0  0  0  0  0  0  0
   -1.8701    0.0625    0.3592 C   0  0  0  0  0  0  0  0  0  0  0  0
   -2.2611   -1.2413    0.0481 C   0  0  0  0  0  0  0  0  0  0  0  0
   -3.5741   -1.6619    0.2777 C   0  0  0  0  0  0  0  0  0  0  0  0
   -4.5239   -0.7773    0.7942 C   0  0  0  0  0  0  0  0  0  0  0  0
   -4.1613    0.5375    1.0826 C   0  0  0  0  0  0  0  0  0  0  0  0
   -2.8431    0.9401    0.8588 C   0  0  0  0  0  0  0  0  0  0  0  0
   -2.4539    2.2712    1.1338 O   0  0  0  0  0  0  0  0  0  0  0  0
   -3.3499    3.2087    1.6272 C   0  0  0  0  0  0  0  0  0  0  0  0
   -3.0286    4.3686    1.8573 O   0  0  0  0  0  0  0  0  0  0  0  0
   -4.7281    2.7484    1.8646 C   0  0  0  0  0  0  0  0  0  0  0  0
   -5.1184    1.4959    1.6110 C   0  0  0  0  0  0  0  0  0  0  0  0
   -1.4239   -2.1891   -0.4727 O   0  0  0  0  0  0  0  0  0  0  0  0
   -0.1573   -1.7266   -0.9826 C   0  0  0  0  0  0  0  0  0  0  0  0
    0.7443   -2.9729   -1.0348 C   0  0  0  0  0  0  0  0  0  0  0  0
   -0.3528   -1.2283   -2.4261 C   0  0  0  0  0  0  0  0  0  0  0  0
    5.7239    0.6387    2.1117 H   0  0  0  0  0  0  0  0  0  0  0  0
    6.3182   -0.7672    1.2124 H   0  0  0  0  0  0  0  0  0  0  0  0
    4.6557   -0.7455    1.7784 H   0  0  0  0  0  0  0  0  0  0  0  0
    5.9407    0.9115   -0.4870 H   0  0  0  0  0  0  0  0  0  0  0  0
    4.5590    1.8220   -2.1634 H   0  0  0  0  0  0  0  0  0  0  0  0
    3.2991    0.6372   -2.5275 H   0  0  0  0  0  0  0  0  0  0  0  0
    2.8905    2.1563   -1.6968 H   0  0  0  0  0  0  0  0  0  0  0  0
    0.6504   -1.1513    0.9301 H   0  0  0  0  0  0  0  0  0  0  0  0
   -0.1120    1.1094    0.9936 H   0  0  0  0  0  0  0  0  0  0  0  0
   -0.4181    1.1776   -0.7348 H   0  0  0  0  0  0  0  0  0  0  0  0
   -3.8593   -2.6854    0.0448 H   0  0  0  0  0  0  0  0  0  0  0  0
   -5.5396   -1.1273    0.9598 H   0  0  0  0  0  0  0  0  0  0  0  0
   -5.4111    3.4912    2.2581 H   0  0  0  0  0  0  0  0  0  0  0  0
   -6.1395    1.1794    1.7932 H   0  0  0  0  0  0  0  0  0  0  0  0
    0.2827   -3.7635   -1.6382 H   0  0  0  0  0  0  0  0  0  0  0  0
    0.8816   -3.3945   -0.0323 H   0  0  0  0  0  0  0  0  0  0  0  0
    1.7304   -2.7506   -1.4553 H   0  0  0  0  0  0  0  0  0  0  0  0
   -0.8099   -2.0104   -3.0439 H   0  0  0  0  0  0  0  0  0  0  0  0
   -1.0335   -0.3725   -2.4752 H   0  0  0  0  0  0  0  0  0  0  0  0
    0.5960   -0.9378   -2.8887 H   0  0  0  0  0  0  0  0  0  0  0  0
  1  2  1  0
  2  3  2  3
  3  4  1  0
  3  5  1  0
  5  6  2  0
  5  7  1  0
  7  8  1  0
  8  9  1  0
  9 10  1  0
 10 11  2  0
 11 12  1  0
 12 13  2  0
 13 14  1  0
 14 15  2  0
 15 16  1  0
 16 17  1  0
 17 18  2  0
 17 19  1  0
 19 20  2  0
 11 21  1  0
 21 22  1  0
 22 23  1  0
 22 24  1  0
 22  8  1  0
 15 10  1  0
 20 14  1  0
  1 25  1  0
  1 26  1  0
  1 27  1  0
  2 28  1  0
  4 29  1  0
  4 30  1  0
  4 31  1  0
  8 32  1  0
  9 33  1  0
  9 34  1  0
 12 35  1  0
 13 36  1  0
 19 37  1  0
 20 38  1  0
 23 39  1  0
 23 40  1  0
 23 41  1  0
 24 42  1  0
 24 43  1  0
 24 44  1  0
M  END
>  <Name>  (274) 
Selinidin (Jatamansin)

>  <PubChem ID>  (274) 
668081

>  <CDB ID>  (274) 
CDB0274

>  <Smiles>  (274) 
CC=C(C)C(=O)OC1CC2=C(C=CC3=C2OC(=O)C=C3)OC1(C)C

>  <Chemical class>  (274) 
7-Oxygenated Coumarins

>  <Natural source>  (274) 
Selinum vaginatum

>  <Molecular Formula>  (274) 
C19H20O5

>  <InChI-Key>  (274) 
RRHCDWLSHIIIIT-OAHLLOKOSA-N

>  <Total Molweight>  (274) 
328.363

>  <cLogP>  (274) 
3.5834

>  <cLogS>  (274) 
-3.941

>  <H-Acceptors>  (274) 
5

>  <H-Donors>  (274) 
0

>  <Rotatable Bonds>  (274) 
3

>  <Polar Surface Area>  (274) 
61.83

$$$$
CDB0275
     RDKit          3D

 44 46  0  0  0  0  0  0  0  0999 V2000
    4.7756   -2.1582    0.5293 C   0  0  0  0  0  0  0  0  0  0  0  0
    4.8004   -0.6975    0.1689 C   0  0  0  0  0  0  0  0  0  0  0  0
    3.7530    0.1480    0.2342 C   0  0  0  0  0  0  0  0  0  0  0  0
    2.3919   -0.1739    0.7259 C   0  0  0  0  0  0  0  0  0  0  0  0
    2.0680   -1.1506    1.3758 O   0  0  0  0  0  0  0  0  0  0  0  0
    1.5698    0.8313    0.3285 O   0  0  0  0  0  0  0  0  0  0  0  0
    0.1853    0.6963    0.7111 C   0  0  0  0  0  0  0  0  0  0  0  0
   -0.5382   -0.2243   -0.2725 C   0  0  0  0  0  0  0  0  0  0  0  0
   -2.0265   -0.1042   -0.1354 C   0  0  0  0  0  0  0  0  0  0  0  0
   -2.5990    0.9791    0.5339 C   0  0  0  0  0  0  0  0  0  0  0  0
   -3.9864    1.0720    0.6764 C   0  0  0  0  0  0  0  0  0  0  0  0
   -4.8242    0.0986    0.1268 C   0  0  0  0  0  0  0  0  0  0  0  0
   -4.2736   -0.9752   -0.5713 C   0  0  0  0  0  0  0  0  0  0  0  0
   -2.8854   -1.0606   -0.6956 C   0  0  0  0  0  0  0  0  0  0  0  0
   -2.3041   -2.1352   -1.4072 O   0  0  0  0  0  0  0  0  0  0  0  0
   -3.0764   -3.1262   -1.9960 C   0  0  0  0  0  0  0  0  0  0  0  0
   -2.5856   -4.0564   -2.6249 O   0  0  0  0  0  0  0  0  0  0  0  0
   -4.5356   -3.0130   -1.8360 C   0  0  0  0  0  0  0  0  0  0  0  0
   -5.1068   -2.0059   -1.1692 C   0  0  0  0  0  0  0  0  0  0  0  0
   -1.8817    1.9960    1.1010 O   0  0  0  0  0  0  0  0  0  0  0  0
   -0.4892    2.0881    0.7400 C   0  0  0  0  0  0  0  0  0  0  0  0
   -0.3684    2.8581   -0.5876 C   0  0  0  0  0  0  0  0  0  0  0  0
    0.1642    2.9441    1.8397 C   0  0  0  0  0  0  0  0  0  0  0  0
    6.1423   -0.2045   -0.3069 C   0  0  0  0  0  0  0  0  0  0  0  0
    3.7700   -2.5786    0.5841 H   0  0  0  0  0  0  0  0  0  0  0  0
    5.2730   -2.3170    1.4913 H   0  0  0  0  0  0  0  0  0  0  0  0
    5.3073   -2.7420   -0.2305 H   0  0  0  0  0  0  0  0  0  0  0  0
    3.8767    1.1814   -0.0775 H   0  0  0  0  0  0  0  0  0  0  0  0
    0.1096    0.2657    1.7207 H   0  0  0  0  0  0  0  0  0  0  0  0
   -0.2457    0.0091   -1.3038 H   0  0  0  0  0  0  0  0  0  0  0  0
   -0.2223   -1.2581   -0.0875 H   0  0  0  0  0  0  0  0  0  0  0  0
   -4.4166    1.9140    1.2140 H   0  0  0  0  0  0  0  0  0  0  0  0
   -5.9001    0.1955    0.2475 H   0  0  0  0  0  0  0  0  0  0  0  0
   -5.1217   -3.7995   -2.2954 H   0  0  0  0  0  0  0  0  0  0  0  0
   -6.1843   -1.9429   -1.0646 H   0  0  0  0  0  0  0  0  0  0  0  0
    0.6765    3.0246   -0.8683 H   0  0  0  0  0  0  0  0  0  0  0  0
   -0.8626    3.8340   -0.5120 H   0  0  0  0  0  0  0  0  0  0  0  0
   -0.8648    2.3349   -1.4111 H   0  0  0  0  0  0  0  0  0  0  0  0
   -0.3386    3.9143    1.9293 H   0  0  0  0  0  0  0  0  0  0  0  0
    0.0677    2.4585    2.8177 H   0  0  0  0  0  0  0  0  0  0  0  0
    1.2264    3.1238    1.6452 H   0  0  0  0  0  0  0  0  0  0  0  0
    6.4451   -0.7403   -1.2126 H   0  0  0  0  0  0  0  0  0  0  0  0
    6.1340    0.8653   -0.5411 H   0  0  0  0  0  0  0  0  0  0  0  0
    6.9008   -0.3688    0.4655 H   0  0  0  0  0  0  0  0  0  0  0  0
  1  2  1  0
  2  3  2  3
  3  4  1  0
  4  5  2  0
  4  6  1  0
  6  7  1  0
  7  8  1  0
  8  9  1  0
  9 10  2  0
 10 11  1  0
 11 12  2  0
 12 13  1  0
 13 14  2  0
 14 15  1  0
 15 16  1  0
 16 17  2  0
 16 18  1  0
 18 19  2  0
 10 20  1  0
 20 21  1  0
 21 22  1  0
 21 23  1  0
  2 24  1  0
 21  7  1  0
 14  9  1  0
 19 13  1  0
  1 25  1  0
  1 26  1  0
  1 27  1  0
  3 28  1  0
  7 29  1  0
  8 30  1  0
  8 31  1  0
 11 32  1  0
 12 33  1  0
 18 34  1  0
 19 35  1  0
 22 36  1  0
 22 37  1  0
 22 38  1  0
 23 39  1  0
 23 40  1  0
 23 41  1  0
 24 42  1  0
 24 43  1  0
 24 44  1  0
M  END
>  <Name>  (275) 
Nuttallin

>  <PubChem ID>  (275) 
12313622

>  <CDB ID>  (275) 
CDB0275

>  <Smiles>  (275) 
CC(=CC(=O)OC1CC2=C(C=CC3=C2OC(=O)C=C3)OC1(C)C)C

>  <Chemical class>  (275) 
7-Oxygenated Coumarins

>  <Natural source>  (275) 
Lomatium nuttallii

>  <Molecular Formula>  (275) 
C19H20O5

>  <InChI-Key>  (275) 
TUNHPCYKZAZELC-OAHLLOKOSA-N

>  <Total Molweight>  (275) 
328.363

>  <cLogP>  (275) 
3.5834

>  <cLogS>  (275) 
-3.941

>  <H-Acceptors>  (275) 
5

>  <H-Donors>  (275) 
0

>  <Rotatable Bonds>  (275) 
3

>  <Polar Surface Area>  (275) 
61.83

$$$$
CDB0276
     RDKit          3D

 44 46  0  0  0  0  0  0  0  0999 V2000
    5.4507   -0.1175    1.3700 C   0  0  0  0  0  0  0  0  0  0  0  0
    5.0854    0.5410    0.0763 C   0  0  0  0  0  0  0  0  0  0  0  0
    3.8566    0.6976   -0.4541 C   0  0  0  0  0  0  0  0  0  0  0  0
    3.6406    1.3628   -1.7819 C   0  0  0  0  0  0  0  0  0  0  0  0
    2.6331    0.2738    0.2808 C   0  0  0  0  0  0  0  0  0  0  0  0
    2.4704    0.3732    1.4854 O   0  0  0  0  0  0  0  0  0  0  0  0
    1.7345   -0.2243   -0.6052 O   0  0  0  0  0  0  0  0  0  0  0  0
    0.4836   -0.6747   -0.0473 C   0  0  0  0  0  0  0  0  0  0  0  0
   -0.4579    0.5154    0.1390 C   0  0  0  0  0  0  0  0  0  0  0  0
   -1.8701    0.0625    0.3592 C   0  0  0  0  0  0  0  0  0  0  0  0
   -2.2611   -1.2413    0.0481 C   0  0  0  0  0  0  0  0  0  0  0  0
   -3.5741   -1.6619    0.2777 C   0  0  0  0  0  0  0  0  0  0  0  0
   -4.5239   -0.7773    0.7942 C   0  0  0  0  0  0  0  0  0  0  0  0
   -4.1613    0.5375    1.0826 C   0  0  0  0  0  0  0  0  0  0  0  0
   -2.8431    0.9401    0.8588 C   0  0  0  0  0  0  0  0  0  0  0  0
   -2.4539    2.2712    1.1338 O   0  0  0  0  0  0  0  0  0  0  0  0
   -3.3499    3.2087    1.6272 C   0  0  0  0  0  0  0  0  0  0  0  0
   -3.0286    4.3686    1.8573 O   0  0  0  0  0  0  0  0  0  0  0  0
   -4.7281    2.7484    1.8646 C   0  0  0  0  0  0  0  0  0  0  0  0
   -5.1184    1.4959    1.6110 C   0  0  0  0  0  0  0  0  0  0  0  0
   -1.4239   -2.1891   -0.4727 O   0  0  0  0  0  0  0  0  0  0  0  0
   -0.1573   -1.7266   -0.9826 C   0  0  0  0  0  0  0  0  0  0  0  0
    0.7443   -2.9729   -1.0348 C   0  0  0  0  0  0  0  0  0  0  0  0
   -0.3528   -1.2283   -2.4261 C   0  0  0  0  0  0  0  0  0  0  0  0
    5.7239    0.6387    2.1117 H   0  0  0  0  0  0  0  0  0  0  0  0
    6.3182   -0.7672    1.2124 H   0  0  0  0  0  0  0  0  0  0  0  0
    4.6557   -0.7455    1.7784 H   0  0  0  0  0  0  0  0  0  0  0  0
    5.9407    0.9115   -0.4870 H   0  0  0  0  0  0  0  0  0  0  0  0
    4.5590    1.8220   -2.1634 H   0  0  0  0  0  0  0  0  0  0  0  0
    3.2991    0.6372   -2.5275 H   0  0  0  0  0  0  0  0  0  0  0  0
    2.8905    2.1563   -1.6968 H   0  0  0  0  0  0  0  0  0  0  0  0
    0.6504   -1.1513    0.9301 H   0  0  0  0  0  0  0  0  0  0  0  0
   -0.1120    1.1094    0.9936 H   0  0  0  0  0  0  0  0  0  0  0  0
   -0.4181    1.1776   -0.7348 H   0  0  0  0  0  0  0  0  0  0  0  0
   -3.8593   -2.6854    0.0448 H   0  0  0  0  0  0  0  0  0  0  0  0
   -5.5396   -1.1273    0.9598 H   0  0  0  0  0  0  0  0  0  0  0  0
   -5.4111    3.4912    2.2581 H   0  0  0  0  0  0  0  0  0  0  0  0
   -6.1395    1.1794    1.7932 H   0  0  0  0  0  0  0  0  0  0  0  0
    0.2827   -3.7635   -1.6382 H   0  0  0  0  0  0  0  0  0  0  0  0
    0.8816   -3.3945   -0.0323 H   0  0  0  0  0  0  0  0  0  0  0  0
    1.7304   -2.7506   -1.4553 H   0  0  0  0  0  0  0  0  0  0  0  0
   -0.8099   -2.0104   -3.0439 H   0  0  0  0  0  0  0  0  0  0  0  0
   -1.0335   -0.3725   -2.4752 H   0  0  0  0  0  0  0  0  0  0  0  0
    0.5960   -0.9378   -2.8887 H   0  0  0  0  0  0  0  0  0  0  0  0
  1  2  1  0
  2  3  2  3
  3  4  1  0
  3  5  1  0
  5  6  2  0
  5  7  1  0
  7  8  1  0
  8  9  1  0
  9 10  1  0
 10 11  2  0
 11 12  1  0
 12 13  2  0
 13 14  1  0
 14 15  2  0
 15 16  1  0
 16 17  1  0
 17 18  2  0
 17 19  1  0
 19 20  2  0
 11 21  1  0
 21 22  1  0
 22 23  1  0
 22 24  1  0
 22  8  1  0
 15 10  1  0
 20 14  1  0
  1 25  1  0
  1 26  1  0
  1 27  1  0
  2 28  1  0
  4 29  1  0
  4 30  1  0
  4 31  1  0
  8 32  1  0
  9 33  1  0
  9 34  1  0
 12 35  1  0
 13 36  1  0
 19 37  1  0
 20 38  1  0
 23 39  1  0
 23 40  1  0
 23 41  1  0
 24 42  1  0
 24 43  1  0
 24 44  1  0
M  END
>  <Name>  (276) 
(? )-Selinidin

>  <PubChem ID>  (276) 
511786

>  <CDB ID>  (276) 
CDB0276

>  <Smiles>  (276) 
CC=C(C)C(=O)OC1CC2=C(C=CC3=C2OC(=O)C=C3)OC1(C)C

>  <Chemical class>  (276) 
7-Oxygenated Coumarins

>  <Natural source>  (276) 
Peucedanum turgeniifolium

>  <Molecular Formula>  (276) 
C19H20O5

>  <InChI-Key>  (276) 
RRHCDWLSHIIIIT-OAHLLOKOSA-N

>  <Total Molweight>  (276) 
328.363

>  <cLogP>  (276) 
3.5834

>  <cLogS>  (276) 
-3.941

>  <H-Acceptors>  (276) 
5

>  <H-Donors>  (276) 
0

>  <Rotatable Bonds>  (276) 
3

>  <Polar Surface Area>  (276) 
61.83

$$$$
CDB0277
     RDKit          3D

 33 35  0  0  0  0  0  0  0  0999 V2000
    2.7840    0.2941   -1.1903 C   0  0  0  0  0  0  0  0  0  0  0  0
    2.3912   -0.4101    0.1194 C   0  0  0  0  0  0  0  0  0  0  0  0
    1.7968    0.5396    1.1738 C   0  0  0  0  0  0  0  0  0  0  0  0
    0.4620    1.1168    0.6867 C   0  0  0  0  0  0  0  0  0  0  0  0
   -0.4118    0.0410    0.1052 C   0  0  0  0  0  0  0  0  0  0  0  0
    0.1524   -1.1772   -0.2893 C   0  0  0  0  0  0  0  0  0  0  0  0
    1.4811   -1.4866   -0.1833 O   0  0  0  0  0  0  0  0  0  0  0  0
   -0.6445   -2.1921   -0.8293 C   0  0  0  0  0  0  0  0  0  0  0  0
   -2.0134   -1.9974   -1.0193 C   0  0  0  0  0  0  0  0  0  0  0  0
   -2.5918   -0.7786   -0.6727 C   0  0  0  0  0  0  0  0  0  0  0  0
   -1.7856    0.2215   -0.1224 C   0  0  0  0  0  0  0  0  0  0  0  0
   -2.3560    1.4714    0.2176 O   0  0  0  0  0  0  0  0  0  0  0  0
   -3.7064    1.7405    0.0322 C   0  0  0  0  0  0  0  0  0  0  0  0
   -4.2001    2.8207    0.3306 O   0  0  0  0  0  0  0  0  0  0  0  0
   -4.5256    0.6613   -0.5395 C   0  0  0  0  0  0  0  0  0  0  0  0
   -4.0098   -0.5251   -0.8731 C   0  0  0  0  0  0  0  0  0  0  0  0
   -0.1289    1.7797    1.8136 O   0  0  0  0  0  0  0  0  0  0  0  0
    2.6914    1.6124    1.4997 O   0  0  0  0  0  0  0  0  0  0  0  0
    3.6517   -1.0808    0.6912 C   0  0  0  0  0  0  0  0  0  0  0  0
    3.2134   -0.4238   -1.8992 H   0  0  0  0  0  0  0  0  0  0  0  0
    1.9169    0.7300   -1.6968 H   0  0  0  0  0  0  0  0  0  0  0  0
    3.5178    1.0884   -1.0199 H   0  0  0  0  0  0  0  0  0  0  0  0
    1.6219   -0.0158    2.1060 H   0  0  0  0  0  0  0  0  0  0  0  0
    0.6371    1.8908   -0.0700 H   0  0  0  0  0  0  0  0  0  0  0  0
   -0.1894   -3.1387   -1.1137 H   0  0  0  0  0  0  0  0  0  0  0  0
   -2.6090   -2.8003   -1.4465 H   0  0  0  0  0  0  0  0  0  0  0  0
   -5.5765    0.8864   -0.6746 H   0  0  0  0  0  0  0  0  0  0  0  0
   -4.6327   -1.3073   -1.2936 H   0  0  0  0  0  0  0  0  0  0  0  0
   -1.0260    2.0512    1.5456 H   0  0  0  0  0  0  0  0  0  0  0  0
    2.1805    2.1917    2.1003 H   0  0  0  0  0  0  0  0  0  0  0  0
    4.4370   -0.3530    0.9195 H   0  0  0  0  0  0  0  0  0  0  0  0
    4.0572   -1.8156   -0.0144 H   0  0  0  0  0  0  0  0  0  0  0  0
    3.4150   -1.6352    1.6068 H   0  0  0  0  0  0  0  0  0  0  0  0
  1  2  1  0
  2  3  1  0
  3  4  1  0
  4  5  1  0
  5  6  2  0
  6  7  1  0
  6  8  1  0
  8  9  2  0
  9 10  1  0
 10 11  2  0
 11 12  1  0
 12 13  1  0
 13 14  2  0
 13 15  1  0
 15 16  2  0
  4 17  1  0
  3 18  1  0
  2 19  1  0
  7  2  1  0
 11  5  1  0
 16 10  1  0
  1 20  1  0
  1 21  1  0
  1 22  1  0
  3 23  1  0
  4 24  1  0
  8 25  1  0
  9 26  1  0
 15 27  1  0
 16 28  1  0
 17 29  1  0
 18 30  1  0
 19 31  1  0
 19 32  1  0
 19 33  1  0
M  END
>  <Name>  (277) 
( + )-Cis-Khellactone

>  <PubChem ID>  (277) 
455821

>  <CDB ID>  (277) 
CDB0277

>  <Smiles>  (277) 
CC1(C(C(C2=C(O1)C=CC3=C2OC(=O)C=C3)O)O)C

>  <Chemical class>  (277) 
7-Oxygenated Coumarins

>  <Natural source>  (277) 
Seseli gummiferum

>  <Molecular Formula>  (277) 
C14H14O5

>  <InChI-Key>  (277) 
HKXQUNNSKMWIKJ-UHFFFAOYSA-N

>  <Total Molweight>  (277) 
262.26

>  <cLogP>  (277) 
1.1098

>  <cLogS>  (277) 
-2.547

>  <H-Acceptors>  (277) 
5

>  <H-Donors>  (277) 
2

>  <Rotatable Bonds>  (277) 
0

>  <Polar Surface Area>  (277) 
75.99

$$$$
CDB0278
     RDKit          3D

 45 47  0  0  0  0  0  0  0  0999 V2000
    5.3893   -2.1223   -0.4738 C   0  0  0  0  0  0  0  0  0  0  0  0
    4.3233   -1.1729   -0.0314 C   0  0  0  0  0  0  0  0  0  0  0  0
    2.9921   -1.2783   -0.2200 C   0  0  0  0  0  0  0  0  0  0  0  0
    2.2853   -2.4166   -0.8917 C   0  0  0  0  0  0  0  0  0  0  0  0
    2.1507   -0.1690    0.3316 C   0  0  0  0  0  0  0  0  0  0  0  0
    2.5362    0.6381    1.1632 O   0  0  0  0  0  0  0  0  0  0  0  0
    0.9191   -0.2093   -0.2360 O   0  0  0  0  0  0  0  0  0  0  0  0
   -0.0084    0.8145    0.1863 C   0  0  0  0  0  0  0  0  0  0  0  0
   -0.0557    1.8705   -0.9342 C   0  0  0  0  0  0  0  0  0  0  0  0
   -1.3070    2.7599   -0.7865 C   0  0  0  0  0  0  0  0  0  0  0  0
   -2.5098    1.9714   -0.8369 O   0  0  0  0  0  0  0  0  0  0  0  0
   -2.5136    0.8045   -0.1244 C   0  0  0  0  0  0  0  0  0  0  0  0
   -1.3689    0.1945    0.3970 C   0  0  0  0  0  0  0  0  0  0  0  0
   -1.5474   -0.9758    1.1554 C   0  0  0  0  0  0  0  0  0  0  0  0
   -2.8046   -1.5554    1.3507 C   0  0  0  0  0  0  0  0  0  0  0  0
   -3.9242   -0.9486    0.7862 C   0  0  0  0  0  0  0  0  0  0  0  0
   -3.7761    0.2290    0.0527 C   0  0  0  0  0  0  0  0  0  0  0  0
   -2.9175   -2.7742    2.1362 C   0  0  0  0  0  0  0  0  0  0  0  0
   -1.8201   -3.3344    2.6525 C   0  0  0  0  0  0  0  0  0  0  0  0
   -0.4791   -2.7606    2.4594 C   0  0  0  0  0  0  0  0  0  0  0  0
    0.5129   -3.3164    2.9152 O   0  0  0  0  0  0  0  0  0  0  0  0
   -0.4075   -1.5769    1.7400 O   0  0  0  0  0  0  0  0  0  0  0  0
   -1.4019    3.7195   -1.9861 C   0  0  0  0  0  0  0  0  0  0  0  0
   -1.3097    3.6115    0.4950 C   0  0  0  0  0  0  0  0  0  0  0  0
    1.1453    2.6514   -0.9289 O   0  0  0  0  0  0  0  0  0  0  0  0
    6.1517   -1.5766   -1.0391 H   0  0  0  0  0  0  0  0  0  0  0  0
    5.0221   -2.9260   -1.1148 H   0  0  0  0  0  0  0  0  0  0  0  0
    5.8713   -2.5717    0.3997 H   0  0  0  0  0  0  0  0  0  0  0  0
    4.7083   -0.3010    0.5004 H   0  0  0  0  0  0  0  0  0  0  0  0
    2.9333   -3.2781   -1.0685 H   0  0  0  0  0  0  0  0  0  0  0  0
    1.8824   -2.0989   -1.8590 H   0  0  0  0  0  0  0  0  0  0  0  0
    1.4578   -2.7764   -0.2706 H   0  0  0  0  0  0  0  0  0  0  0  0
    0.3065    1.2714    1.1327 H   0  0  0  0  0  0  0  0  0  0  0  0
   -0.0899    1.3424   -1.8981 H   0  0  0  0  0  0  0  0  0  0  0  0
   -4.9169   -1.3723    0.9154 H   0  0  0  0  0  0  0  0  0  0  0  0
   -4.6522    0.7116   -0.3751 H   0  0  0  0  0  0  0  0  0  0  0  0
   -3.8960   -3.2156    2.2911 H   0  0  0  0  0  0  0  0  0  0  0  0
   -1.8635   -4.2439    3.2390 H   0  0  0  0  0  0  0  0  0  0  0  0
   -0.5652    4.4245   -2.0189 H   0  0  0  0  0  0  0  0  0  0  0  0
   -1.4231    3.1609   -2.9290 H   0  0  0  0  0  0  0  0  0  0  0  0
   -2.3341    4.2958   -1.9512 H   0  0  0  0  0  0  0  0  0  0  0  0
   -1.3203    2.9944    1.3990 H   0  0  0  0  0  0  0  0  0  0  0  0
   -2.2147    4.2286    0.5445 H   0  0  0  0  0  0  0  0  0  0  0  0
   -0.4396    4.2741    0.5430 H   0  0  0  0  0  0  0  0  0  0  0  0
    1.2793    3.0023   -1.8258 H   0  0  0  0  0  0  0  0  0  0  0  0
  1  2  1  0
  2  3  2  3
  3  4  1  0
  3  5  1  0
  5  6  2  0
  5  7  1  0
  7  8  1  0
  8  9  1  0
  9 10  1  0
 10 11  1  0
 11 12  1  0
 12 13  2  0
 13 14  1  0
 14 15  2  0
 15 16  1  0
 16 17  2  0
 15 18  1  0
 18 19  2  0
 19 20  1  0
 20 21  2  0
 20 22  1  0
 10 23  1  0
 10 24  1  0
  9 25  1  0
 13  8  1  0
 17 12  1  0
 22 14  1  0
  1 26  1  0
  1 27  1  0
  1 28  1  0
  2 29  1  0
  4 30  1  0
  4 31  1  0
  4 32  1  0
  8 33  1  0
  9 34  1  0
 16 35  1  0
 17 36  1  0
 18 37  1  0
 19 38  1  0
 23 39  1  0
 23 40  1  0
 23 41  1  0
 24 42  1  0
 24 43  1  0
 24 44  1  0
 25 45  1  0
M  END
>  <Name>  (278) 
Qianhucoumarin A

>  <PubChem ID>  (278) 
5320810

>  <CDB ID>  (278) 
CDB0278

>  <Smiles>  (278) 
CC=C(C)C(=O)OC1C(C(OC2=C1C3=C(C=C2)C=CC(=O)O3)(C)C)O

>  <Chemical class>  (278) 
7-Oxygenated Coumarins

>  <Natural source>  (278) 
Peucedanum praeruptorum

>  <Molecular Formula>  (278) 
C19H20O6

>  <InChI-Key>  (278) 
QPLSCFLMIOADPA-UHFFFAOYSA-N

>  <Total Molweight>  (278) 
344.362

>  <cLogP>  (278) 
2.8574

>  <cLogS>  (278) 
-3.393

>  <H-Acceptors>  (278) 
6

>  <H-Donors>  (278) 
1

>  <Rotatable Bonds>  (278) 
3

>  <Polar Surface Area>  (278) 
82.06

$$$$
CDB0279
     RDKit          3D

 70 71  0  0  0  0  0  0  0  0999 V2000
    5.8640   -2.6320    0.0318 C   0  0  0  0  0  0  0  0  0  0  0  0
    4.3996   -2.4120    0.2359 C   0  0  0  0  0  0  0  0  0  0  0  0
    3.7916   -1.2987    0.6929 C   0  0  0  0  0  0  0  0  0  0  0  0
    4.4809   -0.0494    1.1502 C   0  0  0  0  0  0  0  0  0  0  0  0
    2.3005   -1.3458    0.7888 C   0  0  0  0  0  0  0  0  0  0  0  0
    1.6403   -2.3743    0.7967 O   0  0  0  0  0  0  0  0  0  0  0  0
    1.7999   -0.0834    0.8687 O   0  0  0  0  0  0  0  0  0  0  0  0
    0.3575    0.0171    0.9659 C   0  0  0  0  0  0  0  0  0  0  0  0
    0.0187   -0.0738    2.4599 C   0  0  0  0  0  0  0  0  0  0  0  0
   -1.3638   -0.6131    2.8220 C   0  0  0  0  0  0  0  0  0  0  0  0
   -2.5232    0.2300    2.2831 C   0  0  0  0  0  0  0  0  0  0  0  0
   -3.3906    0.6405    3.0686 O   0  0  0  0  0  0  0  0  0  0  0  0
   -2.5822    0.6108    0.7964 C   0  0  0  0  0  0  0  0  0  0  0  0
   -1.5849    1.7558    0.4458 C   0  0  0  0  0  0  0  0  0  0  0  0
   -0.0584    1.3708    0.3422 C   0  0  0  0  0  0  0  0  0  0  0  0
    0.3145    1.5406   -1.1682 C   0  0  0  0  0  0  0  0  0  0  0  0
   -0.6140    2.6784   -1.6086 C   0  0  0  0  0  0  0  0  0  0  0  0
   -1.9412    2.3170   -0.9621 C   0  0  0  0  0  0  0  0  0  0  0  0
    1.8137    1.7981   -1.5055 C   0  0  0  0  0  0  0  0  0  0  0  0
    2.0405    2.0992   -2.9975 C   0  0  0  0  0  0  0  0  0  0  0  0
    2.4726    2.9093   -0.6810 C   0  0  0  0  0  0  0  0  0  0  0  0
   -0.0895    0.3458   -1.8477 O   0  0  0  0  0  0  0  0  0  0  0  0
   -1.7432    2.9239    1.4540 C   0  0  0  0  0  0  0  0  0  0  0  0
   -2.4785   -0.4571   -0.1508 O   0  0  0  0  0  0  0  0  0  0  0  0
   -3.5575   -1.2793   -0.2007 C   0  0  0  0  0  0  0  0  0  0  0  0
   -4.4416   -1.3232    0.6414 O   0  0  0  0  0  0  0  0  0  0  0  0
   -3.6445   -2.0108   -1.4943 C   0  0  0  0  0  0  0  0  0  0  0  0
   -2.6308   -2.6285   -2.1309 C   0  0  0  0  0  0  0  0  0  0  0  0
   -1.2114   -2.7997   -1.7020 C   0  0  0  0  0  0  0  0  0  0  0  0
   -5.0390   -2.0275   -2.0586 C   0  0  0  0  0  0  0  0  0  0  0  0
   -1.5499   -2.0921    2.5086 C   0  0  0  0  0  0  0  0  0  0  0  0
   -1.4310   -0.5134    4.2667 O   0  0  0  0  0  0  0  0  0  0  0  0
    6.4628   -1.7279    0.1594 H   0  0  0  0  0  0  0  0  0  0  0  0
    6.2273   -3.3896    0.7328 H   0  0  0  0  0  0  0  0  0  0  0  0
    6.0394   -2.9977   -0.9852 H   0  0  0  0  0  0  0  0  0  0  0  0
    3.7848   -3.2709   -0.0387 H   0  0  0  0  0  0  0  0  0  0  0  0
    4.0424    0.3164    2.0852 H   0  0  0  0  0  0  0  0  0  0  0  0
    4.3920    0.7349    0.3927 H   0  0  0  0  0  0  0  0  0  0  0  0
    5.5440   -0.2029    1.3527 H   0  0  0  0  0  0  0  0  0  0  0  0
   -0.0906   -0.8031    0.4065 H   0  0  0  0  0  0  0  0  0  0  0  0
    0.1667    0.9107    2.9252 H   0  0  0  0  0  0  0  0  0  0  0  0
    0.7639   -0.7007    2.9710 H   0  0  0  0  0  0  0  0  0  0  0  0
   -3.5861    1.0460    0.6631 H   0  0  0  0  0  0  0  0  0  0  0  0
    0.4973    2.1448    0.8866 H   0  0  0  0  0  0  0  0  0  0  0  0
   -0.7349    2.7386   -2.6950 H   0  0  0  0  0  0  0  0  0  0  0  0
   -0.2718    3.6510   -1.2403 H   0  0  0  0  0  0  0  0  0  0  0  0
   -2.4456    1.5662   -1.5822 H   0  0  0  0  0  0  0  0  0  0  0  0
   -2.6107    3.1833   -0.9191 H   0  0  0  0  0  0  0  0  0  0  0  0
    2.3679    0.8713   -1.3185 H   0  0  0  0  0  0  0  0  0  0  0  0
    1.5729    3.0430   -3.2955 H   0  0  0  0  0  0  0  0  0  0  0  0
    1.6479    1.3021   -3.6354 H   0  0  0  0  0  0  0  0  0  0  0  0
    3.1121    2.1818   -3.2122 H   0  0  0  0  0  0  0  0  0  0  0  0
    1.9519    3.8647   -0.7937 H   0  0  0  0  0  0  0  0  0  0  0  0
    2.5079    2.6575    0.3823 H   0  0  0  0  0  0  0  0  0  0  0  0
    3.5104    3.0607   -0.9992 H   0  0  0  0  0  0  0  0  0  0  0  0
   -0.1469    0.5299   -2.8004 H   0  0  0  0  0  0  0  0  0  0  0  0
   -1.1681    3.8027    1.1397 H   0  0  0  0  0  0  0  0  0  0  0  0
   -2.7913    3.2334    1.5370 H   0  0  0  0  0  0  0  0  0  0  0  0
   -1.3929    2.6520    2.4544 H   0  0  0  0  0  0  0  0  0  0  0  0
   -2.8503   -3.1174   -3.0798 H   0  0  0  0  0  0  0  0  0  0  0  0
   -0.9444   -3.8607   -1.7451 H   0  0  0  0  0  0  0  0  0  0  0  0
   -0.5459   -2.2587   -2.3798 H   0  0  0  0  0  0  0  0  0  0  0  0
   -1.0280   -2.4653   -0.6846 H   0  0  0  0  0  0  0  0  0  0  0  0
   -5.0805   -2.5027   -3.0445 H   0  0  0  0  0  0  0  0  0  0  0  0
   -5.4171   -1.0057   -2.1718 H   0  0  0  0  0  0  0  0  0  0  0  0
   -5.7160   -2.5790   -1.3976 H   0  0  0  0  0  0  0  0  0  0  0  0
   -2.5427   -2.4333    2.8252 H   0  0  0  0  0  0  0  0  0  0  0  0
   -0.8231   -2.7017    3.0577 H   0  0  0  0  0  0  0  0  0  0  0  0
   -1.4463   -2.3173    1.4487 H   0  0  0  0  0  0  0  0  0  0  0  0
   -2.3772   -0.3795    4.4872 H   0  0  0  0  0  0  0  0  0  0  0  0
  1  2  1  0
  2  3  2  3
  3  4  1  0
  3  5  1  0
  5  6  2  0
  5  7  1  0
  7  8  1  0
  8  9  1  0
  9 10  1  0
 10 11  1  0
 11 12  2  0
 11 13  1  0
 13 14  1  0
 14 15  1  0
 15 16  1  0
 16 17  1  0
 17 18  1  0
 16 19  1  0
 19 20  1  0
 19 21  1  0
 16 22  1  0
 14 23  1  0
 13 24  1  0
 24 25  1  0
 25 26  2  0
 25 27  1  0
 27 28  2  3
 28 29  1  0
 27 30  1  0
 10 31  1  0
 10 32  1  0
 15  8  1  0
 18 14  1  0
  1 33  1  0
  1 34  1  0
  1 35  1  0
  2 36  1  0
  4 37  1  0
  4 38  1  0
  4 39  1  0
  8 40  1  0
  9 41  1  0
  9 42  1  0
 13 43  1  0
 15 44  1  0
 17 45  1  0
 17 46  1  0
 18 47  1  0
 18 48  1  0
 19 49  1  0
 20 50  1  0
 20 51  1  0
 20 52  1  0
 21 53  1  0
 21 54  1  0
 21 55  1  0
 22 56  1  0
 23 57  1  0
 23 58  1  0
 23 59  1  0
 28 60  1  0
 29 61  1  0
 29 62  1  0
 29 63  1  0
 30 64  1  0
 30 65  1  0
 30 66  1  0
 31 67  1  0
 31 68  1  0
 31 69  1  0
 32 70  1  0
M  END
>  <Name>  (279) 
Laserpitin

>  <PubChem ID>  (279) 
5281524

>  <CDB ID>  (279) 
CDB0279

>  <Smiles>  (279) 
CC=C(C)C(=O)OC1CC(C(=O)C(C2(C1C(CC2)(C(C)C)O)C)OC(=O)C(=CC)C)(C)O

>  <Chemical class>  (279) 
7-Oxygenated Coumarins

>  <Natural source>  (279) 
Laserpitium archangelica

>  <Molecular Formula>  (279) 
C25H38O7

>  <InChI-Key>  (279) 
LYTPVRMVQVQYGM-UHFFFAOYSA-N

>  <Total Molweight>  (279) 
450.57

>  <cLogP>  (279) 
3.96

>  <cLogS>  (279) 
-3.669

>  <H-Acceptors>  (279) 
7

>  <H-Donors>  (279) 
2

>  <Rotatable Bonds>  (279) 
7

>  <Polar Surface Area>  (279) 
110.13

$$$$
CDB0280
     RDKit          3D

 54 57  0  0  0  0  0  0  0  0999 V2000
    1.0934   -3.6192    0.7598 C   0  0  0  0  0  0  0  0  0  0  0  0
    1.7075   -2.2098    0.8611 C   0  0  0  0  0  0  0  0  0  0  0  0
    0.5767   -1.1472    0.8740 C   0  0  0  0  0  0  0  0  0  0  0  0
    1.1598    0.2726    0.7684 C   0  0  0  0  0  0  0  0  0  0  0  0
    2.3341    0.3381   -0.1691 C   0  0  0  0  0  0  0  0  0  0  0  0
    2.9405   -0.8246   -0.6457 C   0  0  0  0  0  0  0  0  0  0  0  0
    2.5679   -2.0896   -0.2885 O   0  0  0  0  0  0  0  0  0  0  0  0
    3.9942   -0.7520   -1.5630 C   0  0  0  0  0  0  0  0  0  0  0  0
    4.4741    0.4840   -2.0018 C   0  0  0  0  0  0  0  0  0  0  0  0
    3.8988    1.6583   -1.5214 C   0  0  0  0  0  0  0  0  0  0  0  0
    2.8420    1.5693   -0.6133 C   0  0  0  0  0  0  0  0  0  0  0  0
    2.2501    2.7488   -0.1022 O   0  0  0  0  0  0  0  0  0  0  0  0
    2.6790    4.0110   -0.4895 C   0  0  0  0  0  0  0  0  0  0  0  0
    2.1771    5.0358   -0.0432 O   0  0  0  0  0  0  0  0  0  0  0  0
    3.7838    4.0685   -1.4598 C   0  0  0  0  0  0  0  0  0  0  0  0
    4.3646    2.9683   -1.9472 C   0  0  0  0  0  0  0  0  0  0  0  0
    1.5563    0.7323    2.0653 O   0  0  0  0  0  0  0  0  0  0  0  0
   -0.3096   -1.3801   -0.2405 O   0  0  0  0  0  0  0  0  0  0  0  0
   -1.6883   -1.1688    0.0719 C   0  0  0  0  0  0  0  0  0  0  0  0
   -2.5315   -1.3995   -1.2014 C   0  0  0  0  0  0  0  0  0  0  0  0
   -4.0053   -1.1988   -0.8599 C   0  0  0  0  0  0  0  0  0  0  0  0
   -4.2349    0.1740   -0.2176 C   0  0  0  0  0  0  0  0  0  0  0  0
   -3.2718    0.3736    0.9679 C   0  0  0  0  0  0  0  0  0  0  0  0
   -1.9100    0.1401    0.6007 O   0  0  0  0  0  0  0  0  0  0  0  0
   -3.3667    1.8028    1.5204 C   0  0  0  0  0  0  0  0  0  0  0  0
   -4.7067    2.1187    1.8932 O   0  0  0  0  0  0  0  0  0  0  0  0
   -5.6111    0.2320    0.1862 O   0  0  0  0  0  0  0  0  0  0  0  0
   -4.7950   -1.3028   -2.0567 O   0  0  0  0  0  0  0  0  0  0  0  0
   -2.1821   -0.4734   -2.2492 O   0  0  0  0  0  0  0  0  0  0  0  0
    2.5783   -2.1714    2.1304 C   0  0  0  0  0  0  0  0  0  0  0  0
    1.8751   -4.3880    0.7773 H   0  0  0  0  0  0  0  0  0  0  0  0
    0.5619   -3.7572   -0.1885 H   0  0  0  0  0  0  0  0  0  0  0  0
    0.3983   -3.8152    1.5829 H   0  0  0  0  0  0  0  0  0  0  0  0
    0.0170   -1.2550    1.8137 H   0  0  0  0  0  0  0  0  0  0  0  0
    0.3888    0.9582    0.4011 H   0  0  0  0  0  0  0  0  0  0  0  0
    4.4439   -1.6698   -1.9353 H   0  0  0  0  0  0  0  0  0  0  0  0
    5.2941    0.5112   -2.7147 H   0  0  0  0  0  0  0  0  0  0  0  0
    4.1019    5.0609   -1.7549 H   0  0  0  0  0  0  0  0  0  0  0  0
    5.1783    3.0334   -2.6613 H   0  0  0  0  0  0  0  0  0  0  0  0
    1.8978    1.6358    1.9382 H   0  0  0  0  0  0  0  0  0  0  0  0
   -1.9734   -1.9102    0.8305 H   0  0  0  0  0  0  0  0  0  0  0  0
   -2.3509   -2.4006   -1.6082 H   0  0  0  0  0  0  0  0  0  0  0  0
   -4.3496   -1.9922   -0.1852 H   0  0  0  0  0  0  0  0  0  0  0  0
   -4.0892    0.9591   -0.9697 H   0  0  0  0  0  0  0  0  0  0  0  0
   -3.5524   -0.3151    1.7764 H   0  0  0  0  0  0  0  0  0  0  0  0
   -3.0280    2.5295    0.7735 H   0  0  0  0  0  0  0  0  0  0  0  0
   -2.7194    1.9093    2.3980 H   0  0  0  0  0  0  0  0  0  0  0  0
   -4.6748    3.0052    2.3002 H   0  0  0  0  0  0  0  0  0  0  0  0
   -5.6821    1.0008    0.7962 H   0  0  0  0  0  0  0  0  0  0  0  0
   -5.6831   -0.9810   -1.7972 H   0  0  0  0  0  0  0  0  0  0  0  0
   -2.8672   -0.6028   -2.9349 H   0  0  0  0  0  0  0  0  0  0  0  0
    3.3118   -2.9866    2.1198 H   0  0  0  0  0  0  0  0  0  0  0  0
    1.9700   -2.2693    3.0355 H   0  0  0  0  0  0  0  0  0  0  0  0
    3.1661   -1.2517    2.2041 H   0  0  0  0  0  0  0  0  0  0  0  0
  1  2  1  0
  2  3  1  0
  3  4  1  0
  4  5  1  0
  5  6  2  0
  6  7  1  0
  6  8  1  0
  8  9  2  0
  9 10  1  0
 10 11  2  0
 11 12  1  0
 12 13  1  0
 13 14  2  0
 13 15  1  0
 15 16  2  0
  4 17  1  0
  3 18  1  0
 18 19  1  0
 19 20  1  0
 20 21  1  0
 21 22  1  0
 22 23  1  0
 23 24  1  0
 23 25  1  0
 25 26  1  0
 22 27  1  0
 21 28  1  0
 20 29  1  0
  2 30  1  0
  7  2  1  0
 11  5  1  0
 16 10  1  0
 24 19  1  0
  1 31  1  0
  1 32  1  0
  1 33  1  0
  3 34  1  0
  4 35  1  0
  8 36  1  0
  9 37  1  0
 15 38  1  0
 16 39  1  0
 17 40  1  0
 19 41  1  0
 20 42  1  0
 21 43  1  0
 22 44  1  0
 23 45  1  0
 25 46  1  0
 25 47  1  0
 26 48  1  0
 27 49  1  0
 28 50  1  0
 29 51  1  0
 30 52  1  0
 30 53  1  0
 30 54  1  0
M  END
>  <Name>  (280) 
Campestrinoside

>  <PubChem ID>  (280) 
97182273

>  <CDB ID>  (280) 
CDB0280

>  <Smiles>  (280) 
CC1(C(C(C2=C(O1)C=CC3=C2OC(=O)C=C3)O)OC4C(C(C(C(O4)CO)O)O)O)C

>  <Chemical class>  (280) 
7-Oxygenated Coumarins

>  <Natural source>  (280) 
Seseli campestre

>  <Molecular Formula>  (280) 
C20H24O10

>  <InChI-Key>  (280) 
QAUDHOGPLBDVAX-UHFFFAOYSA-N

>  <Total Molweight>  (280) 
424.401

>  <cLogP>  (280) 
-0.7273

>  <cLogS>  (280) 
-2.247

>  <H-Acceptors>  (280) 
10

>  <H-Donors>  (280) 
5

>  <Rotatable Bonds>  (280) 
3

>  <Polar Surface Area>  (280) 
155.14

$$$$
CDB0281
     RDKit          3D

 49 51  0  0  0  0  0  0  0  0999 V2000
    3.4552    0.0019    1.7743 C   0  0  0  0  0  0  0  0  0  0  0  0
    3.3120    0.8152    0.4937 C   0  0  0  0  0  0  0  0  0  0  0  0
    4.6607    0.9541   -0.2086 C   0  0  0  0  0  0  0  0  0  0  0  0
    2.2845    0.1886   -0.4335 C   0  0  0  0  0  0  0  0  0  0  0  0
    2.5219   -0.3045   -1.5280 O   0  0  0  0  0  0  0  0  0  0  0  0
    1.0369    0.2988    0.1063 O   0  0  0  0  0  0  0  0  0  0  0  0
   -0.0358   -0.1222   -0.7574 C   0  0  0  0  0  0  0  0  0  0  0  0
   -0.2722   -1.6342   -0.5993 C   0  0  0  0  0  0  0  0  0  0  0  0
   -1.5686   -2.0432   -1.3315 C   0  0  0  0  0  0  0  0  0  0  0  0
   -2.7152   -1.3164   -0.8461 O   0  0  0  0  0  0  0  0  0  0  0  0
   -2.5410   -0.0001   -0.5170 C   0  0  0  0  0  0  0  0  0  0  0  0
   -1.3014    0.6454   -0.4511 C   0  0  0  0  0  0  0  0  0  0  0  0
   -1.3002    2.0219   -0.1671 C   0  0  0  0  0  0  0  0  0  0  0  0
   -2.4742    2.7285    0.1093 C   0  0  0  0  0  0  0  0  0  0  0  0
   -3.6919    2.0525    0.0830 C   0  0  0  0  0  0  0  0  0  0  0  0
   -3.7224    0.6939   -0.2354 C   0  0  0  0  0  0  0  0  0  0  0  0
   -2.4000    4.1490    0.4140 C   0  0  0  0  0  0  0  0  0  0  0  0
   -1.2149    4.7661    0.4202 C   0  0  0  0  0  0  0  0  0  0  0  0
    0.0404    4.0593    0.1211 C   0  0  0  0  0  0  0  0  0  0  0  0
    1.1155    4.6465    0.1400 O   0  0  0  0  0  0  0  0  0  0  0  0
   -0.0640    2.7104   -0.1825 O   0  0  0  0  0  0  0  0  0  0  0  0
   -1.4757   -1.8474   -2.8544 C   0  0  0  0  0  0  0  0  0  0  0  0
   -1.8796   -3.5262   -1.0612 C   0  0  0  0  0  0  0  0  0  0  0  0
   -0.4234   -1.9518    0.8151 O   0  0  0  0  0  0  0  0  0  0  0  0
    0.6479   -2.4876    1.4517 C   0  0  0  0  0  0  0  0  0  0  0  0
    1.7222   -2.7579    0.9367 O   0  0  0  0  0  0  0  0  0  0  0  0
    0.3258   -2.7048    2.8979 C   0  0  0  0  0  0  0  0  0  0  0  0
    4.1787    0.4668    2.4522 H   0  0  0  0  0  0  0  0  0  0  0  0
    2.5006   -0.0719    2.3057 H   0  0  0  0  0  0  0  0  0  0  0  0
    3.7958   -1.0169    1.5610 H   0  0  0  0  0  0  0  0  0  0  0  0
    2.9581    1.8249    0.7370 H   0  0  0  0  0  0  0  0  0  0  0  0
    4.5631    1.5435   -1.1269 H   0  0  0  0  0  0  0  0  0  0  0  0
    5.0700   -0.0240   -0.4852 H   0  0  0  0  0  0  0  0  0  0  0  0
    5.3873    1.4564    0.4384 H   0  0  0  0  0  0  0  0  0  0  0  0
    0.2110    0.1168   -1.8003 H   0  0  0  0  0  0  0  0  0  0  0  0
    0.5750   -2.1920   -1.0164 H   0  0  0  0  0  0  0  0  0  0  0  0
   -4.6249    2.5688    0.2945 H   0  0  0  0  0  0  0  0  0  0  0  0
   -4.6753    0.1703   -0.2740 H   0  0  0  0  0  0  0  0  0  0  0  0
   -3.3132    4.6906    0.6360 H   0  0  0  0  0  0  0  0  0  0  0  0
   -1.1203    5.8213    0.6451 H   0  0  0  0  0  0  0  0  0  0  0  0
   -2.3871   -2.2073   -3.3466 H   0  0  0  0  0  0  0  0  0  0  0  0
   -0.6212   -2.3875   -3.2750 H   0  0  0  0  0  0  0  0  0  0  0  0
   -1.3897   -0.7921   -3.1312 H   0  0  0  0  0  0  0  0  0  0  0  0
   -2.0796   -3.7067    0.0009 H   0  0  0  0  0  0  0  0  0  0  0  0
   -1.0553   -4.1739   -1.3772 H   0  0  0  0  0  0  0  0  0  0  0  0
   -2.7868   -3.8375   -1.5926 H   0  0  0  0  0  0  0  0  0  0  0  0
    0.0879   -1.7489    3.3714 H   0  0  0  0  0  0  0  0  0  0  0  0
   -0.5119   -3.4004    2.9908 H   0  0  0  0  0  0  0  0  0  0  0  0
    1.1953   -3.1362    3.4020 H   0  0  0  0  0  0  0  0  0  0  0  0
  1  2  1  0
  2  3  1  0
  2  4  1  0
  4  5  2  0
  4  6  1  0
  6  7  1  0
  7  8  1  0
  8  9  1  0
  9 10  1  0
 10 11  1  0
 11 12  2  0
 12 13  1  0
 13 14  2  0
 14 15  1  0
 15 16  2  0
 14 17  1  0
 17 18  2  0
 18 19  1  0
 19 20  2  0
 19 21  1  0
  9 22  1  0
  9 23  1  0
  8 24  1  0
 24 25  1  0
 25 26  2  0
 25 27  1  0
 12  7  1  0
 16 11  1  0
 21 13  1  0
  1 28  1  0
  1 29  1  0
  1 30  1  0
  2 31  1  0
  3 32  1  0
  3 33  1  0
  3 34  1  0
  7 35  1  0
  8 36  1  0
 15 37  1  0
 16 38  1  0
 17 39  1  0
 18 40  1  0
 22 41  1  0
 22 42  1  0
 22 43  1  0
 23 44  1  0
 23 45  1  0
 23 46  1  0
 27 47  1  0
 27 48  1  0
 27 49  1  0
M  END
>  <Name>  (281) 
Hyuganin D

>  <PubChem ID>  (281) 
10317265

>  <CDB ID>  (281) 
CDB0281

>  <Smiles>  (281) 
CC(C)C(=O)OC1C(C(OC2=C1C3=C(C=C2)C=CC(=O)O3)(C)C)OC(=O)C

>  <Chemical class>  (281) 
7-Oxygenated Coumarins

>  <Natural source>  (281) 
Angelica furcijuga

>  <Molecular Formula>  (281) 
C20H22O7

>  <InChI-Key>  (281) 
BUTUNJHEBGRWGK-UHFFFAOYSA-N

>  <Total Molweight>  (281) 
374.388

>  <cLogP>  (281) 
2.7517

>  <cLogS>  (281) 
-3.797

>  <H-Acceptors>  (281) 
7

>  <H-Donors>  (281) 
0

>  <Rotatable Bonds>  (281) 
5

>  <Polar Surface Area>  (281) 
88.13

$$$$
CDB0282
     RDKit          3D

 52 54  0  0  0  0  0  0  0  0999 V2000
    2.1502    2.0155    2.2017 C   0  0  0  0  0  0  0  0  0  0  0  0
    2.4946    1.0542    1.0631 C   0  0  0  0  0  0  0  0  0  0  0  0
    1.7391   -0.2661    1.2007 C   0  0  0  0  0  0  0  0  0  0  0  0
    0.3223   -0.0772    1.2431 O   0  0  0  0  0  0  0  0  0  0  0  0
   -0.3527   -0.1481   -0.0289 C   0  0  0  0  0  0  0  0  0  0  0  0
   -1.1063    1.1905   -0.2189 C   0  0  0  0  0  0  0  0  0  0  0  0
   -2.2490    1.0344   -1.2466 C   0  0  0  0  0  0  0  0  0  0  0  0
   -3.1801    0.0234   -0.8235 O   0  0  0  0  0  0  0  0  0  0  0  0
   -2.6450   -1.1543   -0.3861 C   0  0  0  0  0  0  0  0  0  0  0  0
   -1.3054   -1.3242   -0.0254 C   0  0  0  0  0  0  0  0  0  0  0  0
   -0.8990   -2.6304    0.3018 C   0  0  0  0  0  0  0  0  0  0  0  0
   -1.7904   -3.7083    0.3545 C   0  0  0  0  0  0  0  0  0  0  0  0
   -3.1312   -3.4919    0.0508 C   0  0  0  0  0  0  0  0  0  0  0  0
   -3.5526   -2.2182   -0.3267 C   0  0  0  0  0  0  0  0  0  0  0  0
   -1.3017   -5.0280    0.7255 C   0  0  0  0  0  0  0  0  0  0  0  0
   -0.0033   -5.2093    0.9825 C   0  0  0  0  0  0  0  0  0  0  0  0
    0.9713   -4.1119    0.8952 C   0  0  0  0  0  0  0  0  0  0  0  0
    2.1639   -4.3022    1.1008 O   0  0  0  0  0  0  0  0  0  0  0  0
    0.4714   -2.8639    0.5565 O   0  0  0  0  0  0  0  0  0  0  0  0
   -1.7552    0.7140   -2.6704 C   0  0  0  0  0  0  0  0  0  0  0  0
   -3.0867    2.3223   -1.3313 C   0  0  0  0  0  0  0  0  0  0  0  0
   -0.1506    2.1860   -0.6703 O   0  0  0  0  0  0  0  0  0  0  0  0
   -0.2600    3.4313   -0.1307 C   0  0  0  0  0  0  0  0  0  0  0  0
   -1.0982    3.7854    0.6837 O   0  0  0  0  0  0  0  0  0  0  0  0
    0.7924    4.3312   -0.7027 C   0  0  0  0  0  0  0  0  0  0  0  0
    3.9973    0.7914    1.0042 C   0  0  0  0  0  0  0  0  0  0  0  0
    4.7716    1.1838    1.8774 O   0  0  0  0  0  0  0  0  0  0  0  0
    4.5183    0.0206   -0.1839 C   0  0  0  0  0  0  0  0  0  0  0  0
    2.6945    2.9598    2.0901 H   0  0  0  0  0  0  0  0  0  0  0  0
    1.0812    2.2469    2.2213 H   0  0  0  0  0  0  0  0  0  0  0  0
    2.4205    1.5916    3.1753 H   0  0  0  0  0  0  0  0  0  0  0  0
    2.2206    1.5429    0.1229 H   0  0  0  0  0  0  0  0  0  0  0  0
    2.0216   -0.7508    2.1430 H   0  0  0  0  0  0  0  0  0  0  0  0
    2.0153   -0.9612    0.4017 H   0  0  0  0  0  0  0  0  0  0  0  0
    0.3724   -0.2778   -0.8431 H   0  0  0  0  0  0  0  0  0  0  0  0
   -1.5254    1.4740    0.7572 H   0  0  0  0  0  0  0  0  0  0  0  0
   -3.8543   -4.3026    0.0867 H   0  0  0  0  0  0  0  0  0  0  0  0
   -4.5951   -2.0506   -0.5893 H   0  0  0  0  0  0  0  0  0  0  0  0
   -2.0044   -5.8516    0.7926 H   0  0  0  0  0  0  0  0  0  0  0  0
    0.3959   -6.1764    1.2626 H   0  0  0  0  0  0  0  0  0  0  0  0
   -2.6045    0.5869   -3.3522 H   0  0  0  0  0  0  0  0  0  0  0  0
   -1.1147    1.5092   -3.0655 H   0  0  0  0  0  0  0  0  0  0  0  0
   -1.1950   -0.2253   -2.7124 H   0  0  0  0  0  0  0  0  0  0  0  0
   -3.4703    2.6026   -0.3437 H   0  0  0  0  0  0  0  0  0  0  0  0
   -2.5180    3.1628   -1.7401 H   0  0  0  0  0  0  0  0  0  0  0  0
   -3.9678    2.1711   -1.9668 H   0  0  0  0  0  0  0  0  0  0  0  0
    0.7025    5.3243   -0.2532 H   0  0  0  0  0  0  0  0  0  0  0  0
    0.6529    4.4230   -1.7827 H   0  0  0  0  0  0  0  0  0  0  0  0
    1.7857    3.9376   -0.4752 H   0  0  0  0  0  0  0  0  0  0  0  0
    5.5951    0.1858   -0.2815 H   0  0  0  0  0  0  0  0  0  0  0  0
    4.3315   -1.0465   -0.0456 H   0  0  0  0  0  0  0  0  0  0  0  0
    4.0346    0.3742   -1.0980 H   0  0  0  0  0  0  0  0  0  0  0  0
  1  2  1  0
  2  3  1  0
  3  4  1  0
  4  5  1  0
  5  6  1  0
  6  7  1  0
  7  8  1  0
  8  9  1  0
  9 10  2  0
 10 11  1  0
 11 12  2  0
 12 13  1  0
 13 14  2  0
 12 15  1  0
 15 16  2  0
 16 17  1  0
 17 18  2  0
 17 19  1  0
  7 20  1  0
  7 21  1  0
  6 22  1  0
 22 23  1  0
 23 24  2  0
 23 25  1  0
  2 26  1  0
 26 27  2  0
 26 28  1  0
 10  5  1  0
 14  9  1  0
 19 11  1  0
  1 29  1  0
  1 30  1  0
  1 31  1  0
  2 32  1  0
  3 33  1  0
  3 34  1  0
  5 35  1  0
  6 36  1  0
 13 37  1  0
 14 38  1  0
 15 39  1  0
 16 40  1  0
 20 41  1  0
 20 42  1  0
 20 43  1  0
 21 44  1  0
 21 45  1  0
 21 46  1  0
 25 47  1  0
 25 48  1  0
 25 49  1  0
 28 50  1  0
 28 51  1  0
 28 52  1  0
M  END
>  <Name>  (282) 
Hyuganin C

>  <PubChem ID>  (282) 
100946026

>  <CDB ID>  (282) 
CDB0282

>  <Smiles>  (282) 
CC(COC1C(C(OC2=C1C3=C(C=C2)C=CC(=O)O3)(C)C)OC(=O)C)C(=O)C

>  <Chemical class>  (282) 
7-Oxygenated Coumarins

>  <Natural source>  (282) 
Angelica furcijuga

>  <Molecular Formula>  (282) 
C21H24O7

>  <InChI-Key>  (282) 
GMHDTFBUYSRCCK-UHFFFAOYSA-N

>  <Total Molweight>  (282) 
388.415

>  <cLogP>  (282) 
2.5027

>  <cLogS>  (282) 
-3.737

>  <H-Acceptors>  (282) 
7

>  <H-Donors>  (282) 
0

>  <Rotatable Bonds>  (282) 
6

>  <Polar Surface Area>  (282) 
88.13

$$$$
CDB0283
     RDKit          3D

 50 52  0  0  0  0  0  0  0  0999 V2000
    5.6244    0.1393   -1.3599 C   0  0  0  0  0  0  0  0  0  0  0  0
    4.4219    0.3301   -0.4930 C   0  0  0  0  0  0  0  0  0  0  0  0
    3.1487   -0.0392   -0.7419 C   0  0  0  0  0  0  0  0  0  0  0  0
    2.6590   -0.7420   -1.9721 C   0  0  0  0  0  0  0  0  0  0  0  0
    2.1429    0.2853    0.3185 C   0  0  0  0  0  0  0  0  0  0  0  0
    2.4054    0.7932    1.3996 O   0  0  0  0  0  0  0  0  0  0  0  0
    0.8965   -0.0709   -0.0880 O   0  0  0  0  0  0  0  0  0  0  0  0
   -0.1445    0.1918    0.8697 C   0  0  0  0  0  0  0  0  0  0  0  0
   -0.6265    1.6466    0.7186 C   0  0  0  0  0  0  0  0  0  0  0  0
   -1.8857    1.8736    1.5824 C   0  0  0  0  0  0  0  0  0  0  0  0
   -2.9512    0.9678    1.2332 O   0  0  0  0  0  0  0  0  0  0  0  0
   -2.6126   -0.3121    0.8882 C   0  0  0  0  0  0  0  0  0  0  0  0
   -1.3024   -0.7642    0.6926 C   0  0  0  0  0  0  0  0  0  0  0  0
   -1.1227   -2.1287    0.4077 C   0  0  0  0  0  0  0  0  0  0  0  0
   -2.1996   -3.0077    0.2563 C   0  0  0  0  0  0  0  0  0  0  0  0
   -3.4962   -2.5229    0.4118 C   0  0  0  0  0  0  0  0  0  0  0  0
   -3.6984   -1.1801    0.7325 C   0  0  0  0  0  0  0  0  0  0  0  0
   -1.9455   -4.4057   -0.0551 C   0  0  0  0  0  0  0  0  0  0  0  0
   -0.6887   -4.8381   -0.1896 C   0  0  0  0  0  0  0  0  0  0  0  0
    0.4702   -3.9462   -0.0291 C   0  0  0  0  0  0  0  0  0  0  0  0
    1.6121   -4.3664   -0.1726 O   0  0  0  0  0  0  0  0  0  0  0  0
    0.1972   -2.6243    0.2895 O   0  0  0  0  0  0  0  0  0  0  0  0
   -1.6040    1.7363    3.0883 C   0  0  0  0  0  0  0  0  0  0  0  0
   -2.4484    3.2840    1.3308 C   0  0  0  0  0  0  0  0  0  0  0  0
   -0.9755    1.8983   -0.6751 O   0  0  0  0  0  0  0  0  0  0  0  0
   -0.0439    2.5031   -1.4548 C   0  0  0  0  0  0  0  0  0  0  0  0
    1.0528    2.8936   -1.0849 O   0  0  0  0  0  0  0  0  0  0  0  0
   -0.5561    2.6271   -2.8565 C   0  0  0  0  0  0  0  0  0  0  0  0
    6.3669   -0.4655   -0.8298 H   0  0  0  0  0  0  0  0  0  0  0  0
    6.0749    1.1123   -1.5806 H   0  0  0  0  0  0  0  0  0  0  0  0
    5.4112   -0.3510   -2.3109 H   0  0  0  0  0  0  0  0  0  0  0  0
    4.6447    0.8382    0.4468 H   0  0  0  0  0  0  0  0  0  0  0  0
    1.9202   -0.1260   -2.4960 H   0  0  0  0  0  0  0  0  0  0  0  0
    2.1929   -1.6968   -1.7076 H   0  0  0  0  0  0  0  0  0  0  0  0
    3.4524   -0.9659   -2.6880 H   0  0  0  0  0  0  0  0  0  0  0  0
    0.2321    0.0167    1.8860 H   0  0  0  0  0  0  0  0  0  0  0  0
    0.1617    2.3428    1.0300 H   0  0  0  0  0  0  0  0  0  0  0  0
   -4.3571   -3.1771    0.3000 H   0  0  0  0  0  0  0  0  0  0  0  0
   -4.7102   -0.8053    0.8716 H   0  0  0  0  0  0  0  0  0  0  0  0
   -2.7850   -5.0816   -0.1766 H   0  0  0  0  0  0  0  0  0  0  0  0
   -0.4606   -5.8706   -0.4238 H   0  0  0  0  0  0  0  0  0  0  0  0
   -2.5018    1.9708    3.6724 H   0  0  0  0  0  0  0  0  0  0  0  0
   -0.8008    2.4084    3.4072 H   0  0  0  0  0  0  0  0  0  0  0  0
   -1.3322    0.7132    3.3664 H   0  0  0  0  0  0  0  0  0  0  0  0
   -2.7836    3.4029    0.2944 H   0  0  0  0  0  0  0  0  0  0  0  0
   -1.7055    4.0581    1.5493 H   0  0  0  0  0  0  0  0  0  0  0  0
   -3.3322    3.4681    1.9531 H   0  0  0  0  0  0  0  0  0  0  0  0
    0.1981    3.1209   -3.4757 H   0  0  0  0  0  0  0  0  0  0  0  0
   -1.4660    3.2323   -2.8667 H   0  0  0  0  0  0  0  0  0  0  0  0
   -0.7491    1.6335   -3.2688 H   0  0  0  0  0  0  0  0  0  0  0  0
  1  2  1  0
  2  3  2  3
  3  4  1  0
  3  5  1  0
  5  6  2  0
  5  7  1  0
  7  8  1  0
  8  9  1  0
  9 10  1  0
 10 11  1  0
 11 12  1  0
 12 13  2  0
 13 14  1  0
 14 15  2  0
 15 16  1  0
 16 17  2  0
 15 18  1  0
 18 19  2  0
 19 20  1  0
 20 21  2  0
 20 22  1  0
 10 23  1  0
 10 24  1  0
  9 25  1  0
 25 26  1  0
 26 27  2  0
 26 28  1  0
 13  8  1  0
 17 12  1  0
 22 14  1  0
  1 29  1  0
  1 30  1  0
  1 31  1  0
  2 32  1  0
  4 33  1  0
  4 34  1  0
  4 35  1  0
  8 36  1  0
  9 37  1  0
 16 38  1  0
 17 39  1  0
 18 40  1  0
 19 41  1  0
 23 42  1  0
 23 43  1  0
 23 44  1  0
 24 45  1  0
 24 46  1  0
 24 47  1  0
 28 48  1  0
 28 49  1  0
 28 50  1  0
M  END
>  <Name>  (283) 
Pteryxin

>  <PubChem ID>  (283) 
5281425

>  <CDB ID>  (283) 
CDB0283

>  <Smiles>  (283) 
CC=C(C)C(=O)OC1C(C(OC2=C1C3=C(C=C2)C=CC(=O)O3)(C)C)OC(=O)C

>  <Chemical class>  (283) 
7-Oxygenated Coumarins

>  <Natural source>  (283) 
Pteryxia terebenthina var. terebenthina

>  <Molecular Formula>  (283) 
C21H22O7

>  <InChI-Key>  (283) 
LYUZYPKZQDYMEE-UHFFFAOYSA-N

>  <Total Molweight>  (283) 
386.399

>  <cLogP>  (283) 
3.342

>  <cLogS>  (283) 
-3.803

>  <H-Acceptors>  (283) 
7

>  <H-Donors>  (283) 
0

>  <Rotatable Bonds>  (283) 
5

>  <Polar Surface Area>  (283) 
88.13

$$$$
CDB0284
     RDKit          3D

 52 54  0  0  0  0  0  0  0  0999 V2000
    4.5375    0.4472    2.8823 C   0  0  0  0  0  0  0  0  0  0  0  0
    3.7977   -0.1518    1.6845 C   0  0  0  0  0  0  0  0  0  0  0  0
    3.9690   -1.6729    1.6808 C   0  0  0  0  0  0  0  0  0  0  0  0
    2.3153    0.2490    1.7293 C   0  0  0  0  0  0  0  0  0  0  0  0
    1.5844   -0.0118    0.4312 C   0  0  0  0  0  0  0  0  0  0  0  0
    2.1033   -0.3215   -0.6318 O   0  0  0  0  0  0  0  0  0  0  0  0
    0.2488    0.1699    0.6248 O   0  0  0  0  0  0  0  0  0  0  0  0
   -0.5959    0.0380   -0.5393 C   0  0  0  0  0  0  0  0  0  0  0  0
   -1.1733   -1.3907   -0.5693 C   0  0  0  0  0  0  0  0  0  0  0  0
   -2.4563   -1.4404   -1.4263 C   0  0  0  0  0  0  0  0  0  0  0  0
   -3.4532   -0.5327   -0.9235 O   0  0  0  0  0  0  0  0  0  0  0  0
   -3.0256    0.7281   -0.6163 C   0  0  0  0  0  0  0  0  0  0  0  0
   -1.6860    1.0775   -0.4353 C   0  0  0  0  0  0  0  0  0  0  0  0
   -1.3976    2.4313   -0.1878 C   0  0  0  0  0  0  0  0  0  0  0  0
   -2.3981    3.3992   -0.0655 C   0  0  0  0  0  0  0  0  0  0  0  0
   -3.7296    3.0149   -0.2066 C   0  0  0  0  0  0  0  0  0  0  0  0
   -4.0393    1.6824   -0.4837 C   0  0  0  0  0  0  0  0  0  0  0  0
   -2.0287    4.7791    0.2085 C   0  0  0  0  0  0  0  0  0  0  0  0
   -0.7405    5.1064    0.3455 C   0  0  0  0  0  0  0  0  0  0  0  0
    0.3401    4.1150    0.2241 C   0  0  0  0  0  0  0  0  0  0  0  0
    1.5122    4.4388    0.3728 O   0  0  0  0  0  0  0  0  0  0  0  0
   -0.0403    2.8132   -0.0663 O   0  0  0  0  0  0  0  0  0  0  0  0
   -3.0886   -2.8400   -1.3130 C   0  0  0  0  0  0  0  0  0  0  0  0
   -2.2166   -1.1571   -2.9212 C   0  0  0  0  0  0  0  0  0  0  0  0
   -0.2065   -2.3097   -1.1335 O   0  0  0  0  0  0  0  0  0  0  0  0
    0.5727   -3.0009   -0.2598 C   0  0  0  0  0  0  0  0  0  0  0  0
    0.5072   -2.9333    0.9590 O   0  0  0  0  0  0  0  0  0  0  0  0
    1.5351   -3.8694   -1.0098 C   0  0  0  0  0  0  0  0  0  0  0  0
    4.4661    1.5400    2.8770 H   0  0  0  0  0  0  0  0  0  0  0  0
    5.6001    0.1834    2.8554 H   0  0  0  0  0  0  0  0  0  0  0  0
    4.1218    0.0845    3.8286 H   0  0  0  0  0  0  0  0  0  0  0  0
    4.2565    0.2472    0.7710 H   0  0  0  0  0  0  0  0  0  0  0  0
    5.0305   -1.9426    1.6663 H   0  0  0  0  0  0  0  0  0  0  0  0
    3.5184   -2.1262    2.5703 H   0  0  0  0  0  0  0  0  0  0  0  0
    3.5044   -2.1242    0.7995 H   0  0  0  0  0  0  0  0  0  0  0  0
    2.2278    1.3241    1.9281 H   0  0  0  0  0  0  0  0  0  0  0  0
    1.8062   -0.2947    2.5340 H   0  0  0  0  0  0  0  0  0  0  0  0
   -0.0286    0.2405   -1.4572 H   0  0  0  0  0  0  0  0  0  0  0  0
   -1.4333   -1.6889    0.4566 H   0  0  0  0  0  0  0  0  0  0  0  0
   -4.5352    3.7388   -0.1134 H   0  0  0  0  0  0  0  0  0  0  0  0
   -5.0781    1.3849   -0.6097 H   0  0  0  0  0  0  0  0  0  0  0  0
   -2.8086    5.5269    0.3027 H   0  0  0  0  0  0  0  0  0  0  0  0
   -0.4274    6.1220    0.5545 H   0  0  0  0  0  0  0  0  0  0  0  0
   -3.3172   -3.0792   -0.2679 H   0  0  0  0  0  0  0  0  0  0  0  0
   -2.4348   -3.6221   -1.7123 H   0  0  0  0  0  0  0  0  0  0  0  0
   -4.0427   -2.8813   -1.8517 H   0  0  0  0  0  0  0  0  0  0  0  0
   -3.1634   -1.1846   -3.4735 H   0  0  0  0  0  0  0  0  0  0  0  0
   -1.8001   -0.1589   -3.0893 H   0  0  0  0  0  0  0  0  0  0  0  0
   -1.5373   -1.8887   -3.3705 H   0  0  0  0  0  0  0  0  0  0  0  0
    2.1818   -3.2506   -1.6368 H   0  0  0  0  0  0  0  0  0  0  0  0
    2.1603   -4.4157   -0.2978 H   0  0  0  0  0  0  0  0  0  0  0  0
    0.9855   -4.5922   -1.6178 H   0  0  0  0  0  0  0  0  0  0  0  0
  1  2  1  0
  2  3  1  0
  2  4  1  0
  4  5  1  0
  5  6  2  0
  5  7  1  0
  7  8  1  0
  8  9  1  0
  9 10  1  0
 10 11  1  0
 11 12  1  0
 12 13  2  0
 13 14  1  0
 14 15  2  0
 15 16  1  0
 16 17  2  0
 15 18  1  0
 18 19  2  0
 19 20  1  0
 20 21  2  0
 20 22  1  0
 10 23  1  0
 10 24  1  0
  9 25  1  0
 25 26  1  0
 26 27  2  0
 26 28  1  0
 13  8  1  0
 17 12  1  0
 22 14  1  0
  1 29  1  0
  1 30  1  0
  1 31  1  0
  2 32  1  0
  3 33  1  0
  3 34  1  0
  3 35  1  0
  4 36  1  0
  4 37  1  0
  8 38  1  0
  9 39  1  0
 16 40  1  0
 17 41  1  0
 18 42  1  0
 19 43  1  0
 23 44  1  0
 23 45  1  0
 23 46  1  0
 24 47  1  0
 24 48  1  0
 24 49  1  0
 28 50  1  0
 28 51  1  0
 28 52  1  0
M  END
>  <Name>  (284) 
Suksdorfin

>  <PubChem ID>  (284) 
72414

>  <CDB ID>  (284) 
CDB0284

>  <Smiles>  (284) 
CC(C)CC(=O)OC1C(C(OC2=C1C3=C(C=C2)C=CC(=O)O3)(C)C)OC(=O)C

>  <Chemical class>  (284) 
7-Oxygenated Coumarins

>  <Natural source>  (284) 
Lomatium suksdorji

>  <Molecular Formula>  (284) 
C21H24O7

>  <InChI-Key>  (284) 
KLUTZDJBVDPOFE-UHFFFAOYSA-N

>  <Total Molweight>  (284) 
388.415

>  <cLogP>  (284) 
3.2061

>  <cLogS>  (284) 
-4.067

>  <H-Acceptors>  (284) 
7

>  <H-Donors>  (284) 
0

>  <Rotatable Bonds>  (284) 
6

>  <Polar Surface Area>  (284) 
88.13

$$$$
CDB0285
     RDKit          3D

 50 52  0  0  0  0  0  0  0  0999 V2000
    2.2569   -2.0084    1.9888 C   0  0  0  0  0  0  0  0  0  0  0  0
    3.3743   -1.7974    1.0047 C   0  0  0  0  0  0  0  0  0  0  0  0
    3.2302   -1.3888   -0.2718 C   0  0  0  0  0  0  0  0  0  0  0  0
    2.0010   -0.9856   -0.9885 C   0  0  0  0  0  0  0  0  0  0  0  0
    1.9119   -1.0381   -2.2054 O   0  0  0  0  0  0  0  0  0  0  0  0
    1.0741   -0.4725   -0.1498 O   0  0  0  0  0  0  0  0  0  0  0  0
   -0.1379   -0.0220   -0.7801 C   0  0  0  0  0  0  0  0  0  0  0  0
    0.0216    1.4033   -1.3393 C   0  0  0  0  0  0  0  0  0  0  0  0
   -0.1114    2.4677   -0.2193 C   0  0  0  0  0  0  0  0  0  0  0  0
   -1.3511    2.3410    0.5049 O   0  0  0  0  0  0  0  0  0  0  0  0
   -1.7590    1.0764    0.8205 C   0  0  0  0  0  0  0  0  0  0  0  0
   -1.2287   -0.0850    0.2581 C   0  0  0  0  0  0  0  0  0  0  0  0
   -1.7476   -1.3170    0.6891 C   0  0  0  0  0  0  0  0  0  0  0  0
   -2.7684   -1.4054    1.6380 C   0  0  0  0  0  0  0  0  0  0  0  0
   -3.2953   -0.2317    2.1726 C   0  0  0  0  0  0  0  0  0  0  0  0
   -2.7918    1.0039    1.7608 C   0  0  0  0  0  0  0  0  0  0  0  0
   -3.2562   -2.7142    2.0418 C   0  0  0  0  0  0  0  0  0  0  0  0
   -2.7174   -3.8145    1.5089 C   0  0  0  0  0  0  0  0  0  0  0  0
   -1.6356   -3.7592    0.5125 C   0  0  0  0  0  0  0  0  0  0  0  0
   -1.1518   -4.7873    0.0543 O   0  0  0  0  0  0  0  0  0  0  0  0
   -1.2040   -2.4973    0.1296 O   0  0  0  0  0  0  0  0  0  0  0  0
   -0.1442    3.8868   -0.8145 C   0  0  0  0  0  0  0  0  0  0  0  0
    1.0511    2.4190    0.7903 C   0  0  0  0  0  0  0  0  0  0  0  0
   -1.0223    1.5784   -2.3377 O   0  0  0  0  0  0  0  0  0  0  0  0
   -0.6598    2.1508   -3.5160 C   0  0  0  0  0  0  0  0  0  0  0  0
    0.4477    2.5934   -3.7815 O   0  0  0  0  0  0  0  0  0  0  0  0
   -1.8322    2.1883   -4.4472 C   0  0  0  0  0  0  0  0  0  0  0  0
    4.7441   -2.1162    1.5452 C   0  0  0  0  0  0  0  0  0  0  0  0
    2.4669   -2.8757    2.6246 H   0  0  0  0  0  0  0  0  0  0  0  0
    1.3009   -2.2184    1.5043 H   0  0  0  0  0  0  0  0  0  0  0  0
    2.1480   -1.1313    2.6340 H   0  0  0  0  0  0  0  0  0  0  0  0
    4.1010   -1.3390   -0.9214 H   0  0  0  0  0  0  0  0  0  0  0  0
   -0.4200   -0.7011   -1.5973 H   0  0  0  0  0  0  0  0  0  0  0  0
    1.0094    1.4969   -1.8064 H   0  0  0  0  0  0  0  0  0  0  0  0
   -4.0939   -0.2601    2.9094 H   0  0  0  0  0  0  0  0  0  0  0  0
   -3.2015    1.9204    2.1799 H   0  0  0  0  0  0  0  0  0  0  0  0
   -4.0529   -2.7794    2.7747 H   0  0  0  0  0  0  0  0  0  0  0  0
   -3.0520   -4.8067    1.7861 H   0  0  0  0  0  0  0  0  0  0  0  0
    0.7517    4.0968   -1.4075 H   0  0  0  0  0  0  0  0  0  0  0  0
   -1.0303    4.0391   -1.4403 H   0  0  0  0  0  0  0  0  0  0  0  0
   -0.2131    4.6408   -0.0210 H   0  0  0  0  0  0  0  0  0  0  0  0
    2.0204    2.4957    0.2871 H   0  0  0  0  0  0  0  0  0  0  0  0
    1.0416    1.5070    1.3943 H   0  0  0  0  0  0  0  0  0  0  0  0
    0.9723    3.2423    1.5104 H   0  0  0  0  0  0  0  0  0  0  0  0
   -2.6147    2.8275   -4.0309 H   0  0  0  0  0  0  0  0  0  0  0  0
   -2.2087    1.1753   -4.6108 H   0  0  0  0  0  0  0  0  0  0  0  0
   -1.5171    2.5996   -5.4104 H   0  0  0  0  0  0  0  0  0  0  0  0
    5.5353   -1.9306    0.8111 H   0  0  0  0  0  0  0  0  0  0  0  0
    4.9561   -1.4978    2.4237 H   0  0  0  0  0  0  0  0  0  0  0  0
    4.8024   -3.1697    1.8377 H   0  0  0  0  0  0  0  0  0  0  0  0
  1  2  1  0
  2  3  2  3
  3  4  1  0
  4  5  2  0
  4  6  1  0
  6  7  1  0
  7  8  1  0
  8  9  1  0
  9 10  1  0
 10 11  1  0
 11 12  2  0
 12 13  1  0
 13 14  2  0
 14 15  1  0
 15 16  2  0
 14 17  1  0
 17 18  2  0
 18 19  1  0
 19 20  2  0
 19 21  1  0
  9 22  1  0
  9 23  1  0
  8 24  1  0
 24 25  1  0
 25 26  2  0
 25 27  1  0
  2 28  1  0
 12  7  1  0
 16 11  1  0
 21 13  1  0
  1 29  1  0
  1 30  1  0
  1 31  1  0
  3 32  1  0
  7 33  1  0
  8 34  1  0
 15 35  1  0
 16 36  1  0
 17 37  1  0
 18 38  1  0
 22 39  1  0
 22 40  1  0
 22 41  1  0
 23 42  1  0
 23 43  1  0
 23 44  1  0
 27 45  1  0
 27 46  1  0
 27 47  1  0
 28 48  1  0
 28 49  1  0
 28 50  1  0
M  END
>  <Name>  (285) 
Isosamidin

>  <PubChem ID>  (285) 
442133

>  <CDB ID>  (285) 
CDB0285

>  <Smiles>  (285) 
CC(=CC(=O)OC1C(C(OC2=C1C3=C(C=C2)C=CC(=O)O3)(C)C)OC(=O)C)C

>  <Chemical class>  (285) 
7-Oxygenated Coumarins

>  <Natural source>  (285) 
Seseli libanotis

>  <Molecular Formula>  (285) 
C21H22O7

>  <InChI-Key>  (285) 
VPDWBGHNQKUFNN-UHFFFAOYSA-N

>  <Total Molweight>  (285) 
386.399

>  <cLogP>  (285) 
3.342

>  <cLogS>  (285) 
-3.803

>  <H-Acceptors>  (285) 
7

>  <H-Donors>  (285) 
0

>  <Rotatable Bonds>  (285) 
5

>  <Polar Surface Area>  (285) 
88.13

$$$$
CDB0286
     RDKit          3D

 52 54  0  0  0  0  0  0  0  0999 V2000
    4.9104    2.1537    0.8418 C   0  0  0  0  0  0  0  0  0  0  0  0
    3.5943    1.7441    0.1974 C   0  0  0  0  0  0  0  0  0  0  0  0
    3.7055    0.4852   -0.6719 C   0  0  0  0  0  0  0  0  0  0  0  0
    4.6251    0.6799   -1.8777 C   0  0  0  0  0  0  0  0  0  0  0  0
    2.3218    0.0588   -1.1389 C   0  0  0  0  0  0  0  0  0  0  0  0
    1.8809    0.2118   -2.2692 O   0  0  0  0  0  0  0  0  0  0  0  0
    1.6517   -0.5429   -0.1169 O   0  0  0  0  0  0  0  0  0  0  0  0
    0.3436   -1.0922   -0.4130 C   0  0  0  0  0  0  0  0  0  0  0  0
   -0.7662   -0.0833   -0.0577 C   0  0  0  0  0  0  0  0  0  0  0  0
   -2.1012   -0.7640    0.1306 C   0  0  0  0  0  0  0  0  0  0  0  0
   -2.1893   -2.1553    0.2082 C   0  0  0  0  0  0  0  0  0  0  0  0
   -3.4286   -2.7891    0.3443 C   0  0  0  0  0  0  0  0  0  0  0  0
   -4.6022   -2.0410    0.4462 C   0  0  0  0  0  0  0  0  0  0  0  0
   -4.5386   -0.6498    0.4165 C   0  0  0  0  0  0  0  0  0  0  0  0
   -3.2940   -0.0318    0.2662 C   0  0  0  0  0  0  0  0  0  0  0  0
   -3.2153    1.3812    0.2532 O   0  0  0  0  0  0  0  0  0  0  0  0
   -4.3414    2.1869    0.3345 C   0  0  0  0  0  0  0  0  0  0  0  0
   -4.2800    3.4092    0.2798 O   0  0  0  0  0  0  0  0  0  0  0  0
   -5.6334    1.5009    0.4933 C   0  0  0  0  0  0  0  0  0  0  0  0
   -5.7345    0.1693    0.5349 C   0  0  0  0  0  0  0  0  0  0  0  0
   -1.1125   -2.9943    0.1556 O   0  0  0  0  0  0  0  0  0  0  0  0
    0.1734   -2.3962    0.3965 C   0  0  0  0  0  0  0  0  0  0  0  0
    1.2004   -3.4351   -0.0913 C   0  0  0  0  0  0  0  0  0  0  0  0
    0.3774   -2.2165    1.9127 C   0  0  0  0  0  0  0  0  0  0  0  0
   -0.9021    0.8496   -1.1517 O   0  0  0  0  0  0  0  0  0  0  0  0
   -0.2874    2.0516   -1.0011 C   0  0  0  0  0  0  0  0  0  0  0  0
    0.3885    2.3887   -0.0394 O   0  0  0  0  0  0  0  0  0  0  0  0
   -0.5527    2.9157   -2.1947 C   0  0  0  0  0  0  0  0  0  0  0  0
    5.3375    1.3293    1.4214 H   0  0  0  0  0  0  0  0  0  0  0  0
    4.7487    2.9969    1.5212 H   0  0  0  0  0  0  0  0  0  0  0  0
    5.6433    2.4692    0.0936 H   0  0  0  0  0  0  0  0  0  0  0  0
    2.8627    1.5733    0.9968 H   0  0  0  0  0  0  0  0  0  0  0  0
    3.2090    2.5802   -0.3992 H   0  0  0  0  0  0  0  0  0  0  0  0
    4.1146   -0.3437   -0.0794 H   0  0  0  0  0  0  0  0  0  0  0  0
    4.3161    1.5422   -2.4789 H   0  0  0  0  0  0  0  0  0  0  0  0
    5.6626    0.8342   -1.5662 H   0  0  0  0  0  0  0  0  0  0  0  0
    4.6055   -0.2010   -2.5292 H   0  0  0  0  0  0  0  0  0  0  0  0
    0.2689   -1.3400   -1.4818 H   0  0  0  0  0  0  0  0  0  0  0  0
   -0.5213    0.4370    0.8772 H   0  0  0  0  0  0  0  0  0  0  0  0
   -3.4760   -3.8753    0.3833 H   0  0  0  0  0  0  0  0  0  0  0  0
   -5.5527   -2.5567    0.5569 H   0  0  0  0  0  0  0  0  0  0  0  0
   -6.5017    2.1434    0.5734 H   0  0  0  0  0  0  0  0  0  0  0  0
   -6.6981   -0.3147    0.6519 H   0  0  0  0  0  0  0  0  0  0  0  0
    1.0520   -4.3967    0.4142 H   0  0  0  0  0  0  0  0  0  0  0  0
    2.2313   -3.1110    0.0838 H   0  0  0  0  0  0  0  0  0  0  0  0
    1.0757   -3.6307   -1.1627 H   0  0  0  0  0  0  0  0  0  0  0  0
    0.2215   -3.1673    2.4362 H   0  0  0  0  0  0  0  0  0  0  0  0
   -0.3427   -1.5144    2.3447 H   0  0  0  0  0  0  0  0  0  0  0  0
    1.3845   -1.8576    2.1484 H   0  0  0  0  0  0  0  0  0  0  0  0
   -0.1635    2.4341   -3.0952 H   0  0  0  0  0  0  0  0  0  0  0  0
   -0.0453    3.8761   -2.0664 H   0  0  0  0  0  0  0  0  0  0  0  0
   -1.6262    3.0980   -2.2880 H   0  0  0  0  0  0  0  0  0  0  0  0
  1  2  1  0
  2  3  1  0
  3  4  1  0
  3  5  1  0
  5  6  2  0
  5  7  1  0
  7  8  1  0
  8  9  1  0
  9 10  1  0
 10 11  2  0
 11 12  1  0
 12 13  2  0
 13 14  1  0
 14 15  2  0
 15 16  1  0
 16 17  1  0
 17 18  2  0
 17 19  1  0
 19 20  2  0
 11 21  1  0
 21 22  1  0
 22 23  1  0
 22 24  1  0
  9 25  1  0
 25 26  1  0
 26 27  2  0
 26 28  1  0
 22  8  1  0
 15 10  1  0
 20 14  1  0
  1 29  1  0
  1 30  1  0
  1 31  1  0
  2 32  1  0
  2 33  1  0
  3 34  1  0
  4 35  1  0
  4 36  1  0
  4 37  1  0
  8 38  1  0
  9 39  1  0
 12 40  1  0
 13 41  1  0
 19 42  1  0
 20 43  1  0
 23 44  1  0
 23 45  1  0
 23 46  1  0
 24 47  1  0
 24 48  1  0
 24 49  1  0
 28 50  1  0
 28 51  1  0
 28 52  1  0
M  END
>  <Name>  (286) 
Visnadin

>  <PubChem ID>  (286) 
442151

>  <CDB ID>  (286) 
CDB0286

>  <Smiles>  (286) 
CCC(C)C(=O)OC1C(C2=C(C=CC3=C2OC(=O)C=C3)OC1(C)C)OC(=O)C

>  <Chemical class>  (286) 
7-Oxygenated Coumarins

>  <Natural source>  (286) 
Amni visnaga

>  <Molecular Formula>  (286) 
C21H24O7

>  <InChI-Key>  (286) 
GVBNSPFBYXGREE-UHFFFAOYSA-N

>  <Total Molweight>  (286) 
388.415

>  <cLogP>  (286) 
3.2061

>  <cLogS>  (286) 
-4.067

>  <H-Acceptors>  (286) 
7

>  <H-Donors>  (286) 
0

>  <Rotatable Bonds>  (286) 
6

>  <Polar Surface Area>  (286) 
88.13

$$$$
CDB0287
     RDKit          3D

 56 58  0  0  0  0  0  0  0  0999 V2000
    2.8923   -1.0166    2.7066 C   0  0  0  0  0  0  0  0  0  0  0  0
    3.5999   -1.9262    1.7527 C   0  0  0  0  0  0  0  0  0  0  0  0
    3.3299   -2.1668    0.4537 C   0  0  0  0  0  0  0  0  0  0  0  0
    4.0996   -3.1963   -0.3256 C   0  0  0  0  0  0  0  0  0  0  0  0
    2.2726   -1.4901   -0.3502 C   0  0  0  0  0  0  0  0  0  0  0  0
    1.7091   -2.0246   -1.2938 O   0  0  0  0  0  0  0  0  0  0  0  0
    2.1109   -0.2043    0.0384 O   0  0  0  0  0  0  0  0  0  0  0  0
    1.1809    0.6054   -0.7203 C   0  0  0  0  0  0  0  0  0  0  0  0
   -0.2225    0.5688   -0.0803 C   0  0  0  0  0  0  0  0  0  0  0  0
   -1.0566    1.7594   -0.4886 C   0  0  0  0  0  0  0  0  0  0  0  0
   -0.4855    2.8293   -1.1806 C   0  0  0  0  0  0  0  0  0  0  0  0
   -1.2654    3.9119   -1.5993 C   0  0  0  0  0  0  0  0  0  0  0  0
   -2.6259    3.9668   -1.2946 C   0  0  0  0  0  0  0  0  0  0  0  0
   -3.2107    2.9371   -0.5609 C   0  0  0  0  0  0  0  0  0  0  0  0
   -2.4210    1.8543   -0.1635 C   0  0  0  0  0  0  0  0  0  0  0  0
   -2.9988    0.8154    0.6043 O   0  0  0  0  0  0  0  0  0  0  0  0
   -4.3424    0.8099    0.9503 C   0  0  0  0  0  0  0  0  0  0  0  0
   -4.8532   -0.1002    1.5920 O   0  0  0  0  0  0  0  0  0  0  0  0
   -5.1435    1.9615    0.5066 C   0  0  0  0  0  0  0  0  0  0  0  0
   -4.6197    2.9654   -0.2022 C   0  0  0  0  0  0  0  0  0  0  0  0
    0.8403    2.9128   -1.5000 O   0  0  0  0  0  0  0  0  0  0  0  0
    1.7249    2.0489   -0.7646 C   0  0  0  0  0  0  0  0  0  0  0  0
    3.0519    2.0689   -1.5462 C   0  0  0  0  0  0  0  0  0  0  0  0
    1.9956    2.6534    0.6263 C   0  0  0  0  0  0  0  0  0  0  0  0
   -0.8982   -0.6201   -0.5468 O   0  0  0  0  0  0  0  0  0  0  0  0
   -0.8954   -1.6921    0.2926 C   0  0  0  0  0  0  0  0  0  0  0  0
   -0.3969   -1.7061    1.4097 O   0  0  0  0  0  0  0  0  0  0  0  0
   -1.5894   -2.8679   -0.3687 C   0  0  0  0  0  0  0  0  0  0  0  0
   -3.1001   -2.6891   -0.2932 C   0  0  0  0  0  0  0  0  0  0  0  0
   -1.1587   -4.1801    0.2813 C   0  0  0  0  0  0  0  0  0  0  0  0
    3.4860   -0.1132    2.8742 H   0  0  0  0  0  0  0  0  0  0  0  0
    2.7716   -1.5256    3.6688 H   0  0  0  0  0  0  0  0  0  0  0  0
    1.8927   -0.7294    2.3775 H   0  0  0  0  0  0  0  0  0  0  0  0
    4.4149   -2.4831    2.2142 H   0  0  0  0  0  0  0  0  0  0  0  0
    4.9140   -3.6347    0.2613 H   0  0  0  0  0  0  0  0  0  0  0  0
    3.4413   -4.0137   -0.6383 H   0  0  0  0  0  0  0  0  0  0  0  0
    4.5453   -2.7453   -1.2187 H   0  0  0  0  0  0  0  0  0  0  0  0
    1.1100    0.2341   -1.7531 H   0  0  0  0  0  0  0  0  0  0  0  0
   -0.1406    0.5761    1.0141 H   0  0  0  0  0  0  0  0  0  0  0  0
   -0.8034    4.7249   -2.1552 H   0  0  0  0  0  0  0  0  0  0  0  0
   -3.2099    4.8220   -1.6250 H   0  0  0  0  0  0  0  0  0  0  0  0
   -6.1886    1.9460    0.7907 H   0  0  0  0  0  0  0  0  0  0  0  0
   -5.2299    3.8044   -0.5184 H   0  0  0  0  0  0  0  0  0  0  0  0
    2.9099    1.6822   -2.5621 H   0  0  0  0  0  0  0  0  0  0  0  0
    3.8297    1.4752   -1.0553 H   0  0  0  0  0  0  0  0  0  0  0  0
    3.4221    3.0948   -1.6586 H   0  0  0  0  0  0  0  0  0  0  0  0
    2.7496    2.0830    1.1783 H   0  0  0  0  0  0  0  0  0  0  0  0
    2.3488    3.6872    0.5331 H   0  0  0  0  0  0  0  0  0  0  0  0
    1.0900    2.6989    1.2393 H   0  0  0  0  0  0  0  0  0  0  0  0
   -1.2721   -2.8988   -1.4185 H   0  0  0  0  0  0  0  0  0  0  0  0
   -3.6180   -3.5319   -0.7623 H   0  0  0  0  0  0  0  0  0  0  0  0
   -3.4394   -2.6138    0.7457 H   0  0  0  0  0  0  0  0  0  0  0  0
   -3.4125   -1.7748   -0.8089 H   0  0  0  0  0  0  0  0  0  0  0  0
   -0.0697   -4.2942    0.2429 H   0  0  0  0  0  0  0  0  0  0  0  0
   -1.6071   -5.0354   -0.2348 H   0  0  0  0  0  0  0  0  0  0  0  0
   -1.4588   -4.2235    1.3342 H   0  0  0  0  0  0  0  0  0  0  0  0
  1  2  1  0
  2  3  2  3
  3  4  1  0
  3  5  1  0
  5  6  2  0
  5  7  1  0
  7  8  1  0
  8  9  1  0
  9 10  1  0
 10 11  2  0
 11 12  1  0
 12 13  2  0
 13 14  1  0
 14 15  2  0
 15 16  1  0
 16 17  1  0
 17 18  2  0
 17 19  1  0
 19 20  2  0
 11 21  1  0
 21 22  1  0
 22 23  1  0
 22 24  1  0
  9 25  1  0
 25 26  1  0
 26 27  2  0
 26 28  1  0
 28 29  1  0
 28 30  1  0
 22  8  1  0
 15 10  1  0
 20 14  1  0
  1 31  1  0
  1 32  1  0
  1 33  1  0
  2 34  1  0
  4 35  1  0
  4 36  1  0
  4 37  1  0
  8 38  1  0
  9 39  1  0
 12 40  1  0
 13 41  1  0
 19 42  1  0
 20 43  1  0
 23 44  1  0
 23 45  1  0
 23 46  1  0
 24 47  1  0
 24 48  1  0
 24 49  1  0
 28 50  1  0
 29 51  1  0
 29 52  1  0
 29 53  1  0
 30 54  1  0
 30 55  1  0
 30 56  1  0
M  END
>  <Name>  (287) 
Hyuganin B

>  <PubChem ID>  (287) 
10319604

>  <CDB ID>  (287) 
CDB0287

>  <Smiles>  (287) 
CC=C(C)C(=O)OC1C(C2=C(C=CC3=C2OC(=O)C=C3)OC1(C)C)OC(=O)C(C)C

>  <Chemical class>  (287) 
7-Oxygenated Coumarins

>  <Natural source>  (287) 
Musineon divaricatum, Angelica furcijuga

>  <Molecular Formula>  (287) 
C23H26O7

>  <InChI-Key>  (287) 
NMJFVCKFWDELPC-UHFFFAOYSA-N

>  <Total Molweight>  (287) 
414.452

>  <cLogP>  (287) 
4.0147

>  <cLogS>  (287) 
-4.233

>  <H-Acceptors>  (287) 
7

>  <H-Donors>  (287) 
0

>  <Rotatable Bonds>  (287) 
6

>  <Polar Surface Area>  (287) 
88.13

$$$$
CDB0288
     RDKit          3D

 59 61  0  0  0  0  0  0  0  0999 V2000
   -1.3340   -3.8326    3.3326 C   0  0  0  0  0  0  0  0  0  0  0  0
   -1.1338   -3.1955    1.9654 C   0  0  0  0  0  0  0  0  0  0  0  0
   -1.4115   -1.6834    1.9511 C   0  0  0  0  0  0  0  0  0  0  0  0
   -2.8818   -1.3496    2.1791 C   0  0  0  0  0  0  0  0  0  0  0  0
   -0.9645   -1.0888    0.6262 C   0  0  0  0  0  0  0  0  0  0  0  0
   -0.8488   -1.7113   -0.4210 O   0  0  0  0  0  0  0  0  0  0  0  0
   -0.6954    0.2375    0.7777 O   0  0  0  0  0  0  0  0  0  0  0  0
   -0.1912    0.9265   -0.3878 C   0  0  0  0  0  0  0  0  0  0  0  0
    1.3469    0.9672   -0.2911 C   0  0  0  0  0  0  0  0  0  0  0  0
    1.9183    2.1090   -1.1566 C   0  0  0  0  0  0  0  0  0  0  0  0
    1.3832    3.3818   -0.7506 O   0  0  0  0  0  0  0  0  0  0  0  0
    0.0306    3.4374   -0.5632 C   0  0  0  0  0  0  0  0  0  0  0  0
   -0.7845    2.3144   -0.4053 C   0  0  0  0  0  0  0  0  0  0  0  0
   -2.1699    2.5295   -0.3049 C   0  0  0  0  0  0  0  0  0  0  0  0
   -2.7286    3.8106   -0.2942 C   0  0  0  0  0  0  0  0  0  0  0  0
   -1.8870    4.9157   -0.4003 C   0  0  0  0  0  0  0  0  0  0  0  0
   -0.5114    4.7263   -0.5384 C   0  0  0  0  0  0  0  0  0  0  0  0
   -4.1700    3.9619   -0.1737 C   0  0  0  0  0  0  0  0  0  0  0  0
   -4.9450    2.8775   -0.0825 C   0  0  0  0  0  0  0  0  0  0  0  0
   -4.3944    1.5132   -0.1017 C   0  0  0  0  0  0  0  0  0  0  0  0
   -5.1297    0.5376   -0.0089 O   0  0  0  0  0  0  0  0  0  0  0  0
   -3.0175    1.3990   -0.2280 O   0  0  0  0  0  0  0  0  0  0  0  0
    3.4367    2.2137   -0.9220 C   0  0  0  0  0  0  0  0  0  0  0  0
    1.6928    1.9162   -2.6679 C   0  0  0  0  0  0  0  0  0  0  0  0
    1.9098   -0.2856   -0.7481 O   0  0  0  0  0  0  0  0  0  0  0  0
    2.2240   -1.2045    0.1975 C   0  0  0  0  0  0  0  0  0  0  0  0
    2.0904   -1.0507    1.4031 O   0  0  0  0  0  0  0  0  0  0  0  0
    2.7929   -2.4516   -0.4068 C   0  0  0  0  0  0  0  0  0  0  0  0
    2.7180   -2.6782   -1.7345 C   0  0  0  0  0  0  0  0  0  0  0  0
    3.2034   -3.8743   -2.4899 C   0  0  0  0  0  0  0  0  0  0  0  0
    3.4068   -3.3742    0.6063 C   0  0  0  0  0  0  0  0  0  0  0  0
   -2.3810   -3.7912    3.6462 H   0  0  0  0  0  0  0  0  0  0  0  0
   -1.0394   -4.8866    3.3017 H   0  0  0  0  0  0  0  0  0  0  0  0
   -0.7238   -3.3335    4.0920 H   0  0  0  0  0  0  0  0  0  0  0  0
   -1.7721   -3.7057    1.2332 H   0  0  0  0  0  0  0  0  0  0  0  0
   -0.0981   -3.3768    1.6506 H   0  0  0  0  0  0  0  0  0  0  0  0
   -0.8033   -1.2207    2.7393 H   0  0  0  0  0  0  0  0  0  0  0  0
   -3.5147   -1.8008    1.4070 H   0  0  0  0  0  0  0  0  0  0  0  0
   -3.2268   -1.7013    3.1556 H   0  0  0  0  0  0  0  0  0  0  0  0
   -3.0457   -0.2674    2.1467 H   0  0  0  0  0  0  0  0  0  0  0  0
   -0.5025    0.4191   -1.3101 H   0  0  0  0  0  0  0  0  0  0  0  0
    1.6292    1.1574    0.7545 H   0  0  0  0  0  0  0  0  0  0  0  0
   -2.2853    5.9271   -0.3907 H   0  0  0  0  0  0  0  0  0  0  0  0
    0.1444    5.5880   -0.6424 H   0  0  0  0  0  0  0  0  0  0  0  0
   -4.5983    4.9582   -0.1577 H   0  0  0  0  0  0  0  0  0  0  0  0
   -6.0217    2.9500    0.0105 H   0  0  0  0  0  0  0  0  0  0  0  0
    3.9669    1.3100   -1.2393 H   0  0  0  0  0  0  0  0  0  0  0  0
    3.6546    2.3896    0.1379 H   0  0  0  0  0  0  0  0  0  0  0  0
    3.8569    3.0678   -1.4662 H   0  0  0  0  0  0  0  0  0  0  0  0
    2.1715    1.0036   -3.0376 H   0  0  0  0  0  0  0  0  0  0  0  0
    0.6295    1.8689   -2.9231 H   0  0  0  0  0  0  0  0  0  0  0  0
    2.0988    2.7670   -3.2279 H   0  0  0  0  0  0  0  0  0  0  0  0
    2.2313   -1.9429   -2.3745 H   0  0  0  0  0  0  0  0  0  0  0  0
    2.3777   -4.2991   -3.0698 H   0  0  0  0  0  0  0  0  0  0  0  0
    3.5991   -4.6683   -1.8546 H   0  0  0  0  0  0  0  0  0  0  0  0
    3.9898   -3.5742   -3.1895 H   0  0  0  0  0  0  0  0  0  0  0  0
    2.6341   -3.7786    1.2688 H   0  0  0  0  0  0  0  0  0  0  0  0
    4.1391   -2.8353    1.2179 H   0  0  0  0  0  0  0  0  0  0  0  0
    3.9352   -4.2191    0.1602 H   0  0  0  0  0  0  0  0  0  0  0  0
  1  2  1  0
  2  3  1  0
  3  4  1  0
  3  5  1  0
  5  6  2  0
  5  7  1  0
  7  8  1  0
  8  9  1  0
  9 10  1  0
 10 11  1  0
 11 12  1  0
 12 13  2  0
 13 14  1  0
 14 15  2  0
 15 16  1  0
 16 17  2  0
 15 18  1  0
 18 19  2  0
 19 20  1  0
 20 21  2  0
 20 22  1  0
 10 23  1  0
 10 24  1  0
  9 25  1  0
 25 26  1  0
 26 27  2  0
 26 28  1  0
 28 29  2  3
 29 30  1  0
 28 31  1  0
 13  8  1  0
 17 12  1  0
 22 14  1  0
  1 32  1  0
  1 33  1  0
  1 34  1  0
  2 35  1  0
  2 36  1  0
  3 37  1  0
  4 38  1  0
  4 39  1  0
  4 40  1  0
  8 41  1  0
  9 42  1  0
 16 43  1  0
 17 44  1  0
 18 45  1  0
 19 46  1  0
 23 47  1  0
 23 48  1  0
 23 49  1  0
 24 50  1  0
 24 51  1  0
 24 52  1  0
 29 53  1  0
 30 54  1  0
 30 55  1  0
 30 56  1  0
 31 57  1  0
 31 58  1  0
 31 59  1  0
M  END
>  <Name>  (288) 
Hyuganin A

>  <PubChem ID>  (288) 
9980000

>  <CDB ID>  (288) 
CDB0288

>  <Smiles>  (288) 
CCC(C)C(=O)OC1C(C(OC2=C1C3=C(C=C2)C=CC(=O)O3)(C)C)OC(=O)C(=CC)C

>  <Chemical class>  (288) 
7-Oxygenated Coumarins

>  <Natural source>  (288) 
Angelica furcijuga

>  <Molecular Formula>  (288) 
C24H28O7

>  <InChI-Key>  (288) 
GRWOJBMSRFQRMT-UHFFFAOYSA-N

>  <Total Molweight>  (288) 
428.479

>  <cLogP>  (288) 
4.4691

>  <cLogS>  (288) 
-4.503

>  <H-Acceptors>  (288) 
7

>  <H-Donors>  (288) 
0

>  <Rotatable Bonds>  (288) 
7

>  <Polar Surface Area>  (288) 
88.13

$$$$
CDB0289
     RDKit          3D

 57 59  0  0  0  0  0  0  0  0999 V2000
   -4.1400    3.3195    2.4807 C   0  0  0  0  0  0  0  0  0  0  0  0
   -3.5893    2.5102    1.3513 C   0  0  0  0  0  0  0  0  0  0  0  0
   -2.5075    1.7045    1.3546 C   0  0  0  0  0  0  0  0  0  0  0  0
   -1.6003    1.4509    2.5211 C   0  0  0  0  0  0  0  0  0  0  0  0
   -2.1921    1.0087    0.0670 C   0  0  0  0  0  0  0  0  0  0  0  0
   -2.8288    1.1321   -0.9699 O   0  0  0  0  0  0  0  0  0  0  0  0
   -1.1044    0.2099    0.2177 O   0  0  0  0  0  0  0  0  0  0  0  0
   -0.7222   -0.5167   -0.9633 C   0  0  0  0  0  0  0  0  0  0  0  0
    0.1773    0.3699   -1.8440 C   0  0  0  0  0  0  0  0  0  0  0  0
    0.7640   -0.4665   -3.0012 C   0  0  0  0  0  0  0  0  0  0  0  0
    1.5110   -1.6037   -2.5251 O   0  0  0  0  0  0  0  0  0  0  0  0
    1.0546   -2.2457   -1.4068 C   0  0  0  0  0  0  0  0  0  0  0  0
   -0.0017   -1.7971   -0.6055 C   0  0  0  0  0  0  0  0  0  0  0  0
   -0.3870   -2.6091    0.4749 C   0  0  0  0  0  0  0  0  0  0  0  0
    0.2850   -3.7924    0.7958 C   0  0  0  0  0  0  0  0  0  0  0  0
    1.3608   -4.1951    0.0078 C   0  0  0  0  0  0  0  0  0  0  0  0
    1.7380   -3.4250   -1.0927 C   0  0  0  0  0  0  0  0  0  0  0  0
   -0.1523   -4.5778    1.9394 C   0  0  0  0  0  0  0  0  0  0  0  0
   -1.1908   -4.1640    2.6707 C   0  0  0  0  0  0  0  0  0  0  0  0
   -1.9275   -2.9288    2.3609 C   0  0  0  0  0  0  0  0  0  0  0  0
   -2.8666   -2.5649    3.0585 O   0  0  0  0  0  0  0  0  0  0  0  0
   -1.5025   -2.2146    1.2508 O   0  0  0  0  0  0  0  0  0  0  0  0
    1.7708    0.3784   -3.8025 C   0  0  0  0  0  0  0  0  0  0  0  0
   -0.3157   -0.9692   -3.9744 C   0  0  0  0  0  0  0  0  0  0  0  0
    1.2835    0.8832   -1.0464 O   0  0  0  0  0  0  0  0  0  0  0  0
    1.1542    2.1243   -0.5259 C   0  0  0  0  0  0  0  0  0  0  0  0
    0.2202    2.8891   -0.7046 O   0  0  0  0  0  0  0  0  0  0  0  0
    2.3792    2.4959    0.2319 C   0  0  0  0  0  0  0  0  0  0  0  0
    3.0127    1.6698    1.0879 C   0  0  0  0  0  0  0  0  0  0  0  0
    2.6007    0.2934    1.5056 C   0  0  0  0  0  0  0  0  0  0  0  0
    2.8500    3.8960   -0.0284 C   0  0  0  0  0  0  0  0  0  0  0  0
   -4.1270    4.3807    2.2128 H   0  0  0  0  0  0  0  0  0  0  0  0
   -5.1791    3.0295    2.6662 H   0  0  0  0  0  0  0  0  0  0  0  0
   -3.5919    3.2035    3.4169 H   0  0  0  0  0  0  0  0  0  0  0  0
   -4.1625    2.6121    0.4283 H   0  0  0  0  0  0  0  0  0  0  0  0
   -1.8751    2.0156    3.4142 H   0  0  0  0  0  0  0  0  0  0  0  0
   -1.6159    0.3908    2.7950 H   0  0  0  0  0  0  0  0  0  0  0  0
   -0.5711    1.7325    2.2738 H   0  0  0  0  0  0  0  0  0  0  0  0
   -1.6192   -0.8240   -1.5164 H   0  0  0  0  0  0  0  0  0  0  0  0
   -0.3985    1.2090   -2.2534 H   0  0  0  0  0  0  0  0  0  0  0  0
    1.9070   -5.1087    0.2282 H   0  0  0  0  0  0  0  0  0  0  0  0
    2.5677   -3.7476   -1.7182 H   0  0  0  0  0  0  0  0  0  0  0  0
    0.3751   -5.4930    2.1855 H   0  0  0  0  0  0  0  0  0  0  0  0
   -1.5433   -4.7204    3.5305 H   0  0  0  0  0  0  0  0  0  0  0  0
    2.6326    0.6638   -3.1888 H   0  0  0  0  0  0  0  0  0  0  0  0
    1.3069    1.2875   -4.1990 H   0  0  0  0  0  0  0  0  0  0  0  0
    2.1799   -0.1953   -4.6426 H   0  0  0  0  0  0  0  0  0  0  0  0
   -0.9141   -0.1416   -4.3693 H   0  0  0  0  0  0  0  0  0  0  0  0
    0.1413   -1.4978   -4.8194 H   0  0  0  0  0  0  0  0  0  0  0  0
   -0.9896   -1.6930   -3.5057 H   0  0  0  0  0  0  0  0  0  0  0  0
    3.9165    2.0305    1.5769 H   0  0  0  0  0  0  0  0  0  0  0  0
    2.7921    0.1667    2.5764 H   0  0  0  0  0  0  0  0  0  0  0  0
    3.1835   -0.4580    0.9652 H   0  0  0  0  0  0  0  0  0  0  0  0
    1.5359    0.1044    1.3538 H   0  0  0  0  0  0  0  0  0  0  0  0
    3.7855    4.1188    0.4958 H   0  0  0  0  0  0  0  0  0  0  0  0
    2.1021    4.6227    0.3058 H   0  0  0  0  0  0  0  0  0  0  0  0
    3.0281    4.0463   -1.0985 H   0  0  0  0  0  0  0  0  0  0  0  0
  1  2  1  0
  2  3  2  3
  3  4  1  0
  3  5  1  0
  5  6  2  0
  5  7  1  0
  7  8  1  0
  8  9  1  0
  9 10  1  0
 10 11  1  0
 11 12  1  0
 12 13  2  0
 13 14  1  0
 14 15  2  0
 15 16  1  0
 16 17  2  0
 15 18  1  0
 18 19  2  0
 19 20  1  0
 20 21  2  0
 20 22  1  0
 10 23  1  0
 10 24  1  0
  9 25  1  0
 25 26  1  0
 26 27  2  0
 26 28  1  0
 28 29  2  3
 29 30  1  0
 28 31  1  0
 13  8  1  0
 17 12  1  0
 22 14  1  0
  1 32  1  0
  1 33  1  0
  1 34  1  0
  2 35  1  0
  4 36  1  0
  4 37  1  0
  4 38  1  0
  8 39  1  0
  9 40  1  0
 16 41  1  0
 17 42  1  0
 18 43  1  0
 19 44  1  0
 23 45  1  0
 23 46  1  0
 23 47  1  0
 24 48  1  0
 24 49  1  0
 24 50  1  0
 29 51  1  0
 30 52  1  0
 30 53  1  0
 30 54  1  0
 31 55  1  0
 31 56  1  0
 31 57  1  0
M  END
>  <Name>  (289) 
Anomalin

>  <PubChem ID>  (289) 
10251869

>  <CDB ID>  (289) 
CDB0289

>  <Smiles>  (289) 
CC=C(C)C(=O)OC1C(C(OC2=C1C3=C(C=C2)C=CC(=O)O3)(C)C)OC(=O)C(=CC)C

>  <Chemical class>  (289) 
7-Oxygenated Coumarins

>  <Natural source>  (289) 
Angelica anomala

>  <Molecular Formula>  (289) 
C24H26O7

>  <InChI-Key>  (289) 
PNTWXEIQXBRCPS-UHFFFAOYSA-N

>  <Total Molweight>  (289) 
426.463

>  <cLogP>  (289) 
4.605

>  <cLogS>  (289) 
-4.239

>  <H-Acceptors>  (289) 
7

>  <H-Donors>  (289) 
0

>  <Rotatable Bonds>  (289) 
6

>  <Polar Surface Area>  (289) 
88.13

$$$$
CDB0290
     RDKit          3D

 57 59  0  0  0  0  0  0  0  0999 V2000
   -3.5438   -4.3462   -0.9486 C   0  0  0  0  0  0  0  0  0  0  0  0
   -2.8746   -4.2174    0.3838 C   0  0  0  0  0  0  0  0  0  0  0  0
   -2.1267   -3.1923    0.8373 C   0  0  0  0  0  0  0  0  0  0  0  0
   -1.5316   -3.1837    2.2148 C   0  0  0  0  0  0  0  0  0  0  0  0
   -1.8039   -2.0288   -0.0316 C   0  0  0  0  0  0  0  0  0  0  0  0
   -1.5103   -2.1022   -1.2137 O   0  0  0  0  0  0  0  0  0  0  0  0
   -1.9021   -0.8905    0.6981 O   0  0  0  0  0  0  0  0  0  0  0  0
   -1.6508    0.3537    0.0027 C   0  0  0  0  0  0  0  0  0  0  0  0
   -0.1871    0.7869    0.2009 C   0  0  0  0  0  0  0  0  0  0  0  0
    0.0019    2.2569   -0.0827 C   0  0  0  0  0  0  0  0  0  0  0  0
   -1.1002    3.1012   -0.2320 C   0  0  0  0  0  0  0  0  0  0  0  0
   -0.9281    4.4560   -0.5332 C   0  0  0  0  0  0  0  0  0  0  0  0
    0.3516    5.0013   -0.6499 C   0  0  0  0  0  0  0  0  0  0  0  0
    1.4683    4.1908   -0.4570 C   0  0  0  0  0  0  0  0  0  0  0  0
    1.2799    2.8365   -0.1694 C   0  0  0  0  0  0  0  0  0  0  0  0
    2.4060    2.0091    0.0566 O   0  0  0  0  0  0  0  0  0  0  0  0
    3.7062    2.4827   -0.0381 C   0  0  0  0  0  0  0  0  0  0  0  0
    4.6841    1.7649    0.1338 O   0  0  0  0  0  0  0  0  0  0  0  0
    3.8646    3.9114   -0.3545 C   0  0  0  0  0  0  0  0  0  0  0  0
    2.8195    4.7207   -0.5500 C   0  0  0  0  0  0  0  0  0  0  0  0
   -2.3990    2.6953   -0.1048 O   0  0  0  0  0  0  0  0  0  0  0  0
   -2.6136    1.4296    0.5467 C   0  0  0  0  0  0  0  0  0  0  0  0
   -2.5331    1.6211    2.0727 C   0  0  0  0  0  0  0  0  0  0  0  0
   -4.0618    1.0356    0.2021 C   0  0  0  0  0  0  0  0  0  0  0  0
    0.6269    0.0430   -0.7290 O   0  0  0  0  0  0  0  0  0  0  0  0
    1.3219   -0.9962   -0.2092 C   0  0  0  0  0  0  0  0  0  0  0  0
    1.3001   -1.3839    0.9463 O   0  0  0  0  0  0  0  0  0  0  0  0
    2.1118   -1.5947   -1.3046 C   0  0  0  0  0  0  0  0  0  0  0  0
    3.3677   -2.0636   -1.1780 C   0  0  0  0  0  0  0  0  0  0  0  0
    4.1940   -1.9951    0.0779 C   0  0  0  0  0  0  0  0  0  0  0  0
    4.0681   -2.6918   -2.3521 C   0  0  0  0  0  0  0  0  0  0  0  0
   -3.0120   -5.0763   -1.5658 H   0  0  0  0  0  0  0  0  0  0  0  0
   -4.5686   -4.7048   -0.8055 H   0  0  0  0  0  0  0  0  0  0  0  0
   -3.6114   -3.4028   -1.4951 H   0  0  0  0  0  0  0  0  0  0  0  0
   -3.0441   -5.0636    1.0481 H   0  0  0  0  0  0  0  0  0  0  0  0
   -1.7072   -4.1283    2.7408 H   0  0  0  0  0  0  0  0  0  0  0  0
   -1.9673   -2.3842    2.8228 H   0  0  0  0  0  0  0  0  0  0  0  0
   -0.4487   -3.0361    2.1654 H   0  0  0  0  0  0  0  0  0  0  0  0
   -1.8432    0.2358   -1.0738 H   0  0  0  0  0  0  0  0  0  0  0  0
    0.1238    0.6047    1.2378 H   0  0  0  0  0  0  0  0  0  0  0  0
   -1.8002    5.0928   -0.6655 H   0  0  0  0  0  0  0  0  0  0  0  0
    0.4591    6.0584   -0.8796 H   0  0  0  0  0  0  0  0  0  0  0  0
    4.8849    4.2691   -0.4184 H   0  0  0  0  0  0  0  0  0  0  0  0
    2.9613    5.7708   -0.7812 H   0  0  0  0  0  0  0  0  0  0  0  0
   -2.7819    0.7014    2.6120 H   0  0  0  0  0  0  0  0  0  0  0  0
   -1.5387    1.9457    2.3950 H   0  0  0  0  0  0  0  0  0  0  0  0
   -3.2253    2.4068    2.3978 H   0  0  0  0  0  0  0  0  0  0  0  0
   -4.1861    0.9228   -0.8812 H   0  0  0  0  0  0  0  0  0  0  0  0
   -4.3607    0.0993    0.6843 H   0  0  0  0  0  0  0  0  0  0  0  0
   -4.7629    1.8202    0.5102 H   0  0  0  0  0  0  0  0  0  0  0  0
    1.5905   -1.6371   -2.2559 H   0  0  0  0  0  0  0  0  0  0  0  0
    4.3215   -2.9972    0.4995 H   0  0  0  0  0  0  0  0  0  0  0  0
    3.7628   -1.3511    0.8478 H   0  0  0  0  0  0  0  0  0  0  0  0
    5.1859   -1.5880   -0.1471 H   0  0  0  0  0  0  0  0  0  0  0  0
    4.3641   -3.7180   -2.1111 H   0  0  0  0  0  0  0  0  0  0  0  0
    4.9664   -2.1211   -2.6093 H   0  0  0  0  0  0  0  0  0  0  0  0
    3.4321   -2.7304   -3.2429 H   0  0  0  0  0  0  0  0  0  0  0  0
  1  2  1  0
  2  3  2  3
  3  4  1  0
  3  5  1  0
  5  6  2  0
  5  7  1  0
  7  8  1  0
  8  9  1  0
  9 10  1  0
 10 11  2  0
 11 12  1  0
 12 13  2  0
 13 14  1  0
 14 15  2  0
 15 16  1  0
 16 17  1  0
 17 18  2  0
 17 19  1  0
 19 20  2  0
 11 21  1  0
 21 22  1  0
 22 23  1  0
 22 24  1  0
  9 25  1  0
 25 26  1  0
 26 27  2  0
 26 28  1  0
 28 29  2  3
 29 30  1  0
 29 31  1  0
 22  8  1  0
 15 10  1  0
 20 14  1  0
  1 32  1  0
  1 33  1  0
  1 34  1  0
  2 35  1  0
  4 36  1  0
  4 37  1  0
  4 38  1  0
  8 39  1  0
  9 40  1  0
 12 41  1  0
 13 42  1  0
 19 43  1  0
 20 44  1  0
 23 45  1  0
 23 46  1  0
 23 47  1  0
 24 48  1  0
 24 49  1  0
 24 50  1  0
 28 51  1  0
 30 52  1  0
 30 53  1  0
 30 54  1  0
 31 55  1  0
 31 56  1  0
 31 57  1  0
M  END
>  <Name>  (290) 
Calipteryxin

>  <PubChem ID>  (290) 
15945070

>  <CDB ID>  (290) 
CDB0290

>  <Smiles>  (290) 
CC=C(C)C(=O)OC1C(C2=C(C=CC3=C2OC(=O)C=C3)OC1(C)C)OC(=O)C=C(C)C

>  <Chemical class>  (290) 
7-Oxygenated Coumarins

>  <Natural source>  (290) 
Pteryxia terebinthina

>  <Molecular Formula>  (290) 
C24H26O7

>  <InChI-Key>  (290) 
WKQRMUACBRBLQV-UHFFFAOYSA-N

>  <Total Molweight>  (290) 
426.463

>  <cLogP>  (290) 
4.605

>  <cLogS>  (290) 
-4.239

>  <H-Acceptors>  (290) 
7

>  <H-Donors>  (290) 
0

>  <Rotatable Bonds>  (290) 
6

>  <Polar Surface Area>  (290) 
88.13

$$$$
CDB0291
     RDKit          3D

 51 54  0  0  0  0  0  0  0  0999 V2000
    4.0636   -2.3336    2.2989 C   0  0  0  0  0  0  0  0  0  0  0  0
    2.9797   -1.8218    1.4199 C   0  0  0  0  0  0  0  0  0  0  0  0
    3.0559   -0.4917    0.6767 C   0  0  0  0  0  0  0  0  0  0  0  0
    2.3120   -0.6545    1.9047 O   0  0  0  0  0  0  0  0  0  0  0  0
    4.2598    0.3888    0.8158 C   0  0  0  0  0  0  0  0  0  0  0  0
    2.2232   -0.3640   -0.5483 C   0  0  0  0  0  0  0  0  0  0  0  0
    2.3973   -1.0830   -1.5210 O   0  0  0  0  0  0  0  0  0  0  0  0
    1.3126    0.6339   -0.4388 O   0  0  0  0  0  0  0  0  0  0  0  0
    0.3970    0.8332   -1.5537 C   0  0  0  0  0  0  0  0  0  0  0  0
   -0.9017    0.0423   -1.3078 C   0  0  0  0  0  0  0  0  0  0  0  0
   -1.6857    0.6650   -0.1761 C   0  0  0  0  0  0  0  0  0  0  0  0
   -1.4718    2.0066    0.1602 C   0  0  0  0  0  0  0  0  0  0  0  0
   -2.1859    2.6024    1.2050 C   0  0  0  0  0  0  0  0  0  0  0  0
   -3.1486    1.8808    1.9121 C   0  0  0  0  0  0  0  0  0  0  0  0
   -3.4118    0.5573    1.5662 C   0  0  0  0  0  0  0  0  0  0  0  0
   -2.6880   -0.0284    0.5233 C   0  0  0  0  0  0  0  0  0  0  0  0
   -2.9804   -1.3583    0.1384 O   0  0  0  0  0  0  0  0  0  0  0  0
   -3.9256   -2.1320    0.7945 C   0  0  0  0  0  0  0  0  0  0  0  0
   -4.1570   -3.2934    0.4797 O   0  0  0  0  0  0  0  0  0  0  0  0
   -4.6546   -1.4870    1.8977 C   0  0  0  0  0  0  0  0  0  0  0  0
   -4.4216   -0.2234    2.2641 C   0  0  0  0  0  0  0  0  0  0  0  0
   -0.5814    2.8342   -0.4678 O   0  0  0  0  0  0  0  0  0  0  0  0
    0.0775    2.3411   -1.6511 C   0  0  0  0  0  0  0  0  0  0  0  0
   -0.7952    2.6840   -2.8704 C   0  0  0  0  0  0  0  0  0  0  0  0
    1.3836    3.1487   -1.7592 C   0  0  0  0  0  0  0  0  0  0  0  0
   -0.5863   -1.3330   -1.0266 O   0  0  0  0  0  0  0  0  0  0  0  0
   -0.4405   -2.1204   -2.1272 C   0  0  0  0  0  0  0  0  0  0  0  0
   -0.5452   -1.7392   -3.2850 O   0  0  0  0  0  0  0  0  0  0  0  0
   -0.1448   -3.5293   -1.7161 C   0  0  0  0  0  0  0  0  0  0  0  0
    3.6789   -3.1361    2.9364 H   0  0  0  0  0  0  0  0  0  0  0  0
    4.8773   -2.7436    1.6931 H   0  0  0  0  0  0  0  0  0  0  0  0
    4.4763   -1.5616    2.9551 H   0  0  0  0  0  0  0  0  0  0  0  0
    2.3820   -2.6174    0.9915 H   0  0  0  0  0  0  0  0  0  0  0  0
    4.6322    0.4345    1.8437 H   0  0  0  0  0  0  0  0  0  0  0  0
    5.0677    0.0250    0.1732 H   0  0  0  0  0  0  0  0  0  0  0  0
    4.0191    1.4131    0.5122 H   0  0  0  0  0  0  0  0  0  0  0  0
    0.8789    0.4986   -2.4807 H   0  0  0  0  0  0  0  0  0  0  0  0
   -1.5553    0.0982   -2.1881 H   0  0  0  0  0  0  0  0  0  0  0  0
   -1.9917    3.6408    1.4648 H   0  0  0  0  0  0  0  0  0  0  0  0
   -3.6894    2.3677    2.7195 H   0  0  0  0  0  0  0  0  0  0  0  0
   -5.3955   -2.0999    2.3960 H   0  0  0  0  0  0  0  0  0  0  0  0
   -4.9717    0.2326    3.0799 H   0  0  0  0  0  0  0  0  0  0  0  0
   -0.9412    3.7679   -2.9487 H   0  0  0  0  0  0  0  0  0  0  0  0
   -1.8003    2.2580   -2.7921 H   0  0  0  0  0  0  0  0  0  0  0  0
   -0.3386    2.3304   -3.8006 H   0  0  0  0  0  0  0  0  0  0  0  0
    1.9779    2.8380   -2.6248 H   0  0  0  0  0  0  0  0  0  0  0  0
    1.1728    4.2207   -1.8517 H   0  0  0  0  0  0  0  0  0  0  0  0
    1.9965    3.0424   -0.8571 H   0  0  0  0  0  0  0  0  0  0  0  0
    0.0224   -4.1394   -2.6083 H   0  0  0  0  0  0  0  0  0  0  0  0
    0.7601   -3.5566   -1.1040 H   0  0  0  0  0  0  0  0  0  0  0  0
   -0.9946   -3.9389   -1.1644 H   0  0  0  0  0  0  0  0  0  0  0  0
  1  2  1  0
  2  3  1  0
  3  4  1  0
  3  5  1  0
  3  6  1  0
  6  7  2  0
  6  8  1  0
  8  9  1  0
  9 10  1  0
 10 11  1  0
 11 12  2  0
 12 13  1  0
 13 14  2  0
 14 15  1  0
 15 16  2  0
 16 17  1  0
 17 18  1  0
 18 19  2  0
 18 20  1  0
 20 21  2  0
 12 22  1  0
 22 23  1  0
 23 24  1  0
 23 25  1  0
 10 26  1  0
 26 27  1  0
 27 28  2  0
 27 29  1  0
  4  2  1  0
 23  9  1  0
 16 11  1  0
 21 15  1  0
  1 30  1  0
  1 31  1  0
  1 32  1  0
  2 33  1  0
  5 34  1  0
  5 35  1  0
  5 36  1  0
  9 37  1  0
 10 38  1  0
 13 39  1  0
 14 40  1  0
 20 41  1  0
 21 42  1  0
 24 43  1  0
 24 44  1  0
 24 45  1  0
 25 46  1  0
 25 47  1  0
 25 48  1  0
 29 49  1  0
 29 50  1  0
 29 51  1  0
M  END
>  <Name>  (291) 
Isoepoxypteryxin

>  <PubChem ID>  (291) 
442130

>  <CDB ID>  (291) 
CDB0291

>  <Smiles>  (291) 
CC1C(O1)(C)C(=O)OC2C(C3=C(C=CC4=C3OC(=O)C=C4)OC2(C)C)OC(=O)C

>  <Chemical class>  (291) 
7-Oxygenated Coumarins

>  <Natural source>  (291) 
Angelica jurcijuga

>  <Molecular Formula>  (291) 
C21H22O8

>  <InChI-Key>  (291) 
JATBXVRRSYYPIL-UHFFFAOYSA-N

>  <Total Molweight>  (291) 
402.398

>  <cLogP>  (291) 
1.9112

>  <cLogS>  (291) 
-3.699

>  <H-Acceptors>  (291) 
8

>  <H-Donors>  (291) 
0

>  <Rotatable Bonds>  (291) 
5

>  <Polar Surface Area>  (291) 
100.66

$$$$
CDB0292
     RDKit          3D

 77 80  0  0  0  0  0  0  0  0999 V2000
    7.1381    1.6314   -0.3302 C   0  0  0  0  0  0  0  0  0  0  0  0
    6.8569    0.2509   -0.9396 C   0  0  0  0  0  0  0  0  0  0  0  0
    7.9975   -0.6935   -0.5352 C   0  0  0  0  0  0  0  0  0  0  0  0
    5.4527   -0.3038   -0.5338 C   0  0  0  0  0  0  0  0  0  0  0  0
    5.2120   -1.6991   -1.1301 C   0  0  0  0  0  0  0  0  0  0  0  0
    4.3220    0.6717   -0.9481 C   0  0  0  0  0  0  0  0  0  0  0  0
    2.8804    0.2327   -0.6366 C   0  0  0  0  0  0  0  0  0  0  0  0
    2.5773   -0.0847    0.8448 C   0  0  0  0  0  0  0  0  0  0  0  0
    2.8862    1.1250    1.7360 C   0  0  0  0  0  0  0  0  0  0  0  0
    1.1702   -0.7318    1.0117 C   0  0  0  0  0  0  0  0  0  0  0  0
    0.8943   -1.2529    2.4487 C   0  0  0  0  0  0  0  0  0  0  0  0
   -0.6275   -1.2458    2.6377 C   0  0  0  0  0  0  0  0  0  0  0  0
   -1.1790   -0.9698    1.2441 C   0  0  0  0  0  0  0  0  0  0  0  0
   -0.1484    0.0024    0.6122 C   0  0  0  0  0  0  0  0  0  0  0  0
   -0.4243    0.0764   -0.9059 C   0  0  0  0  0  0  0  0  0  0  0  0
   -1.8526   -0.3354   -1.3091 C   0  0  0  0  0  0  0  0  0  0  0  0
   -2.9564    0.0496   -0.2911 C   0  0  0  0  0  0  0  0  0  0  0  0
   -2.6248   -0.4649    1.1532 C   0  0  0  0  0  0  0  0  0  0  0  0
   -3.6210   -1.4913    1.7071 C   0  0  0  0  0  0  0  0  0  0  0  0
   -5.0224   -1.0098    1.5129 C   0  0  0  0  0  0  0  0  0  0  0  0
   -5.3947   -0.4080    0.3717 C   0  0  0  0  0  0  0  0  0  0  0  0
   -4.4205   -0.2716   -0.8009 C   0  0  0  0  0  0  0  0  0  0  0  0
   -4.9074    0.8691   -1.7521 C   0  0  0  0  0  0  0  0  0  0  0  0
   -5.4957    2.0575   -0.9895 C   0  0  0  0  0  0  0  0  0  0  0  0
   -6.7142    1.6555   -0.1463 C   0  0  0  0  0  0  0  0  0  0  0  0
   -6.7805    0.1535    0.1699 C   0  0  0  0  0  0  0  0  0  0  0  0
   -6.7007    2.4116    1.0670 O   0  0  0  0  0  0  0  0  0  0  0  0
   -4.4770   -1.5929   -1.6062 C   0  0  0  0  0  0  0  0  0  0  0  0
   -0.2231    1.4262    1.2045 C   0  0  0  0  0  0  0  0  0  0  0  0
    8.1659    1.9496   -0.5372 H   0  0  0  0  0  0  0  0  0  0  0  0
    7.0009    1.6197    0.7563 H   0  0  0  0  0  0  0  0  0  0  0  0
    6.4843    2.3990   -0.7539 H   0  0  0  0  0  0  0  0  0  0  0  0
    6.8888    0.3581   -2.0320 H   0  0  0  0  0  0  0  0  0  0  0  0
    7.9536   -0.9325    0.5326 H   0  0  0  0  0  0  0  0  0  0  0  0
    8.9735   -0.2393   -0.7396 H   0  0  0  0  0  0  0  0  0  0  0  0
    7.9650   -1.6287   -1.1016 H   0  0  0  0  0  0  0  0  0  0  0  0
    5.4403   -0.4037    0.5588 H   0  0  0  0  0  0  0  0  0  0  0  0
    5.9553   -2.4208   -0.7797 H   0  0  0  0  0  0  0  0  0  0  0  0
    5.2489   -1.6711   -2.2241 H   0  0  0  0  0  0  0  0  0  0  0  0
    4.2412   -2.1054   -0.8322 H   0  0  0  0  0  0  0  0  0  0  0  0
    4.3904    0.8514   -2.0292 H   0  0  0  0  0  0  0  0  0  0  0  0
    4.4786    1.6449   -0.4719 H   0  0  0  0  0  0  0  0  0  0  0  0
    2.6334   -0.6353   -1.2583 H   0  0  0  0  0  0  0  0  0  0  0  0
    2.2186    1.0406   -0.9715 H   0  0  0  0  0  0  0  0  0  0  0  0
    3.2775   -0.8700    1.1612 H   0  0  0  0  0  0  0  0  0  0  0  0
    2.5051    1.0151    2.7527 H   0  0  0  0  0  0  0  0  0  0  0  0
    2.4930    2.0560    1.3213 H   0  0  0  0  0  0  0  0  0  0  0  0
    3.9702    1.2588    1.8271 H   0  0  0  0  0  0  0  0  0  0  0  0
    1.2093   -1.6396    0.3863 H   0  0  0  0  0  0  0  0  0  0  0  0
    1.3574   -0.6492    3.2323 H   0  0  0  0  0  0  0  0  0  0  0  0
    1.2914   -2.2691    2.5564 H   0  0  0  0  0  0  0  0  0  0  0  0
   -0.9831   -2.2002    3.0394 H   0  0  0  0  0  0  0  0  0  0  0  0
   -0.9182   -0.4616    3.3458 H   0  0  0  0  0  0  0  0  0  0  0  0
   -1.1326   -1.9296    0.7041 H   0  0  0  0  0  0  0  0  0  0  0  0
    0.2656   -0.5720   -1.4581 H   0  0  0  0  0  0  0  0  0  0  0  0
   -0.2354    1.0906   -1.2794 H   0  0  0  0  0  0  0  0  0  0  0  0
   -1.8519   -1.4236   -1.4496 H   0  0  0  0  0  0  0  0  0  0  0  0
   -2.0690    0.0979   -2.2923 H   0  0  0  0  0  0  0  0  0  0  0  0
   -2.8965    1.1446   -0.2140 H   0  0  0  0  0  0  0  0  0  0  0  0
   -2.7169    0.4084    1.8168 H   0  0  0  0  0  0  0  0  0  0  0  0
   -3.4950   -2.4759    1.2434 H   0  0  0  0  0  0  0  0  0  0  0  0
   -3.4455   -1.6235    2.7815 H   0  0  0  0  0  0  0  0  0  0  0  0
   -5.7234   -1.1441    2.3325 H   0  0  0  0  0  0  0  0  0  0  0  0
   -4.0872    1.2175   -2.3904 H   0  0  0  0  0  0  0  0  0  0  0  0
   -5.6772    0.4904   -2.4389 H   0  0  0  0  0  0  0  0  0  0  0  0
   -4.7254    2.5213   -0.3614 H   0  0  0  0  0  0  0  0  0  0  0  0
   -5.7978    2.8341   -1.7030 H   0  0  0  0  0  0  0  0  0  0  0  0
   -7.6322    1.9383   -0.6739 H   0  0  0  0  0  0  0  0  0  0  0  0
   -7.4082   -0.0167    1.0528 H   0  0  0  0  0  0  0  0  0  0  0  0
   -7.2507   -0.3798   -0.6655 H   0  0  0  0  0  0  0  0  0  0  0  0
   -5.9562    2.0782    1.5997 H   0  0  0  0  0  0  0  0  0  0  0  0
   -5.5109   -1.8735   -1.8423 H   0  0  0  0  0  0  0  0  0  0  0  0
   -3.9506   -1.5047   -2.5631 H   0  0  0  0  0  0  0  0  0  0  0  0
   -4.0336   -2.4288   -1.0552 H   0  0  0  0  0  0  0  0  0  0  0  0
    0.0170    1.4495    2.2716 H   0  0  0  0  0  0  0  0  0  0  0  0
   -1.2121    1.8768    1.0875 H   0  0  0  0  0  0  0  0  0  0  0  0
    0.4669    2.0997    0.6883 H   0  0  0  0  0  0  0  0  0  0  0  0
  1  2  1  0
  2  3  1  0
  2  4  1  0
  4  5  1  0
  4  6  1  0
  6  7  1  0
  7  8  1  0
  8  9  1  0
  8 10  1  0
 10 11  1  0
 11 12  1  0
 12 13  1  0
 13 14  1  0
 14 15  1  0
 15 16  1  0
 16 17  1  0
 17 18  1  0
 18 19  1  0
 19 20  1  0
 20 21  2  0
 21 22  1  0
 22 23  1  0
 23 24  1  0
 24 25  1  0
 25 26  1  0
 25 27  1  0
 22 28  1  0
 14 29  1  0
 14 10  1  0
 18 13  1  0
 22 17  1  0
 26 21  1  0
  1 30  1  0
  1 31  1  0
  1 32  1  0
  2 33  1  0
  3 34  1  0
  3 35  1  0
  3 36  1  0
  4 37  1  0
  5 38  1  0
  5 39  1  0
  5 40  1  0
  6 41  1  0
  6 42  1  0
  7 43  1  0
  7 44  1  0
  8 45  1  0
  9 46  1  0
  9 47  1  0
  9 48  1  0
 10 49  1  0
 11 50  1  0
 11 51  1  0
 12 52  1  0
 12 53  1  0
 13 54  1  0
 15 55  1  0
 15 56  1  0
 16 57  1  0
 16 58  1  0
 17 59  1  0
 18 60  1  0
 19 61  1  0
 19 62  1  0
 20 63  1  0
 23 64  1  0
 23 65  1  0
 24 66  1  0
 24 67  1  0
 25 68  1  0
 26 69  1  0
 26 70  1  0
 27 71  1  0
 28 72  1  0
 28 73  1  0
 28 74  1  0
 29 75  1  0
 29 76  1  0
 29 77  1  0
M  END
>  <Name>  (292) 
Campestrol

>  <PubChem ID>  (292) 
173183

>  <CDB ID>  (292) 
CDB0292

>  <Smiles>  (292) 
CC(C)C(C)CCC(C)C1CCC2C1(CCC3C2CC=C4C3(CCC(C4)O)C)C

>  <Chemical class>  (292) 
7-Oxygenated Coumarins

>  <Natural source>  (292) 
Seseli campestre

>  <Molecular Formula>  (292) 
C28H48O

>  <InChI-Key>  (292) 
SGNBVLSWZMBQTH-UHFFFAOYSA-N

>  <Total Molweight>  (292) 
400.688

>  <cLogP>  (292) 
7.4008

>  <cLogS>  (292) 
-6.399

>  <H-Acceptors>  (292) 
1

>  <H-Donors>  (292) 
1

>  <Rotatable Bonds>  (292) 
5

>  <Polar Surface Area>  (292) 
20.23

$$$$
CDB0293
     RDKit          3D

 52 54  0  0  0  0  0  0  0  0999 V2000
    3.5293    1.2777    1.1075 C   0  0  0  0  0  0  0  0  0  0  0  0
    4.1420    0.3988    0.0137 C   0  0  0  0  0  0  0  0  0  0  0  0
    5.6631    0.5769    0.0132 C   0  0  0  0  0  0  0  0  0  0  0  0
    3.5766    0.7374   -1.3770 C   0  0  0  0  0  0  0  0  0  0  0  0
    2.1690    0.2655   -1.6783 C   0  0  0  0  0  0  0  0  0  0  0  0
    1.6141    0.4880   -2.7481 O   0  0  0  0  0  0  0  0  0  0  0  0
    1.6168   -0.4342   -0.6586 O   0  0  0  0  0  0  0  0  0  0  0  0
    0.2658   -0.9263   -0.8338 C   0  0  0  0  0  0  0  0  0  0  0  0
   -0.7531    0.0797   -0.2605 C   0  0  0  0  0  0  0  0  0  0  0  0
   -2.0732   -0.5802    0.0592 C   0  0  0  0  0  0  0  0  0  0  0  0
   -2.2015   -1.9702    0.0390 C   0  0  0  0  0  0  0  0  0  0  0  0
   -3.4333   -2.5808    0.2952 C   0  0  0  0  0  0  0  0  0  0  0  0
   -4.5536   -1.8133    0.6174 C   0  0  0  0  0  0  0  0  0  0  0  0
   -4.4428   -0.4265    0.6889 C   0  0  0  0  0  0  0  0  0  0  0  0
   -3.2082    0.1691    0.4163 C   0  0  0  0  0  0  0  0  0  0  0  0
   -3.0789    1.5757    0.5040 O   0  0  0  0  0  0  0  0  0  0  0  0
   -4.1523    2.4010    0.8051 C   0  0  0  0  0  0  0  0  0  0  0  0
   -4.0525    3.6215    0.8407 O   0  0  0  0  0  0  0  0  0  0  0  0
   -5.4356    1.7383    1.0864 C   0  0  0  0  0  0  0  0  0  0  0  0
   -5.5800    0.4110    1.0361 C   0  0  0  0  0  0  0  0  0  0  0  0
   -1.1730   -2.8292   -0.2273 O   0  0  0  0  0  0  0  0  0  0  0  0
    0.1540   -2.2864   -0.1119 C   0  0  0  0  0  0  0  0  0  0  0  0
    1.0717   -3.3082   -0.8089 C   0  0  0  0  0  0  0  0  0  0  0  0
    0.5593   -2.2355    1.3738 C   0  0  0  0  0  0  0  0  0  0  0  0
   -1.0066    1.0983   -1.2532 O   0  0  0  0  0  0  0  0  0  0  0  0
   -0.3115    2.2587   -1.1249 C   0  0  0  0  0  0  0  0  0  0  0  0
    0.5363    2.4901   -0.2741 O   0  0  0  0  0  0  0  0  0  0  0  0
   -0.7272    3.2244   -2.1910 C   0  0  0  0  0  0  0  0  0  0  0  0
    3.9682    1.0421    2.0831 H   0  0  0  0  0  0  0  0  0  0  0  0
    2.4502    1.1240    1.1917 H   0  0  0  0  0  0  0  0  0  0  0  0
    3.7048    2.3404    0.9081 H   0  0  0  0  0  0  0  0  0  0  0  0
    3.9321   -0.6509    0.2536 H   0  0  0  0  0  0  0  0  0  0  0  0
    6.1319   -0.0803   -0.7269 H   0  0  0  0  0  0  0  0  0  0  0  0
    6.0849    0.3274    0.9927 H   0  0  0  0  0  0  0  0  0  0  0  0
    5.9426    1.6092   -0.2238 H   0  0  0  0  0  0  0  0  0  0  0  0
    3.6001    1.8225   -1.5326 H   0  0  0  0  0  0  0  0  0  0  0  0
    4.2115    0.2706   -2.1404 H   0  0  0  0  0  0  0  0  0  0  0  0
    0.0517   -1.0823   -1.9009 H   0  0  0  0  0  0  0  0  0  0  0  0
   -0.3683    0.5246    0.6665 H   0  0  0  0  0  0  0  0  0  0  0  0
   -3.5153   -3.6648    0.2551 H   0  0  0  0  0  0  0  0  0  0  0  0
   -5.4987   -2.3115    0.8180 H   0  0  0  0  0  0  0  0  0  0  0  0
   -6.2602    2.3944    1.3367 H   0  0  0  0  0  0  0  0  0  0  0  0
   -6.5362   -0.0557    1.2468 H   0  0  0  0  0  0  0  0  0  0  0  0
    2.1275   -3.0248   -0.7472 H   0  0  0  0  0  0  0  0  0  0  0  0
    0.9563   -4.3032   -0.3631 H   0  0  0  0  0  0  0  0  0  0  0  0
    0.8023   -3.4139   -1.8662 H   0  0  0  0  0  0  0  0  0  0  0  0
    0.4341   -3.2202    1.8395 H   0  0  0  0  0  0  0  0  0  0  0  0
   -0.0697   -1.5488    1.9489 H   0  0  0  0  0  0  0  0  0  0  0  0
    1.6021   -1.9271    1.5014 H   0  0  0  0  0  0  0  0  0  0  0  0
   -0.5090    2.8053   -3.1764 H   0  0  0  0  0  0  0  0  0  0  0  0
   -0.1652    4.1555   -2.0754 H   0  0  0  0  0  0  0  0  0  0  0  0
   -1.7929    3.4466   -2.0937 H   0  0  0  0  0  0  0  0  0  0  0  0
  1  2  1  0
  2  3  1  0
  2  4  1  0
  4  5  1  0
  5  6  2  0
  5  7  1  0
  7  8  1  0
  8  9  1  0
  9 10  1  0
 10 11  2  0
 11 12  1  0
 12 13  2  0
 13 14  1  0
 14 15  2  0
 15 16  1  0
 16 17  1  0
 17 18  2  0
 17 19  1  0
 19 20  2  0
 11 21  1  0
 21 22  1  0
 22 23  1  0
 22 24  1  0
  9 25  1  0
 25 26  1  0
 26 27  2  0
 26 28  1  0
 22  8  1  0
 15 10  1  0
 20 14  1  0
  1 29  1  0
  1 30  1  0
  1 31  1  0
  2 32  1  0
  3 33  1  0
  3 34  1  0
  3 35  1  0
  4 36  1  0
  4 37  1  0
  8 38  1  0
  9 39  1  0
 12 40  1  0
 13 41  1  0
 19 42  1  0
 20 43  1  0
 23 44  1  0
 23 45  1  0
 23 46  1  0
 24 47  1  0
 24 48  1  0
 24 49  1  0
 28 50  1  0
 28 51  1  0
 28 52  1  0
M  END
>  <Name>  (293) 
Dihydrosamidin

>  <PubChem ID>  (293) 
442128

>  <CDB ID>  (293) 
CDB0293

>  <Smiles>  (293) 
CC(C)CC(=O)OC1C(C2=C(C=CC3=C2OC(=O)C=C3)OC1(C)C)OC(=O)C

>  <Chemical class>  (293) 
7-Oxygenated Coumarins

>  <Natural source>  (293) 
Ammi visnaga

>  <Molecular Formula>  (293) 
C21H24O7

>  <InChI-Key>  (293) 
ALKTVPFKDYZFGA-UHFFFAOYSA-N

>  <Total Molweight>  (293) 
388.415

>  <cLogP>  (293) 
3.2061

>  <cLogS>  (293) 
-4.067

>  <H-Acceptors>  (293) 
7

>  <H-Donors>  (293) 
0

>  <Rotatable Bonds>  (293) 
6

>  <Polar Surface Area>  (293) 
88.13

$$$$
CDB0294
     RDKit          3D

 50 52  0  0  0  0  0  0  0  0999 V2000
    2.5738   -1.1971    2.2908 C   0  0  0  0  0  0  0  0  0  0  0  0
    3.6930   -1.4255    1.3114 C   0  0  0  0  0  0  0  0  0  0  0  0
    3.8841   -0.7460    0.1626 C   0  0  0  0  0  0  0  0  0  0  0  0
    3.0420    0.3074   -0.4454 C   0  0  0  0  0  0  0  0  0  0  0  0
    3.5007    1.1522   -1.1983 O   0  0  0  0  0  0  0  0  0  0  0  0
    1.7435    0.1598   -0.1083 O   0  0  0  0  0  0  0  0  0  0  0  0
    0.7851    1.0565   -0.7320 C   0  0  0  0  0  0  0  0  0  0  0  0
   -0.4167    0.1858   -1.1401 C   0  0  0  0  0  0  0  0  0  0  0  0
   -1.3210   -0.0848    0.0354 C   0  0  0  0  0  0  0  0  0  0  0  0
   -1.1986    0.6373    1.2230 C   0  0  0  0  0  0  0  0  0  0  0  0
   -2.0172    0.3470    2.3191 C   0  0  0  0  0  0  0  0  0  0  0  0
   -2.9891   -0.6524    2.2377 C   0  0  0  0  0  0  0  0  0  0  0  0
   -3.1445   -1.3708    1.0540 C   0  0  0  0  0  0  0  0  0  0  0  0
   -2.3107   -1.0793   -0.0276 C   0  0  0  0  0  0  0  0  0  0  0  0
   -2.4515   -1.7979   -1.2381 O   0  0  0  0  0  0  0  0  0  0  0  0
   -3.4155   -2.7827   -1.4003 C   0  0  0  0  0  0  0  0  0  0  0  0
   -3.5622   -3.3911   -2.4535 O   0  0  0  0  0  0  0  0  0  0  0  0
   -4.2693   -3.0716   -0.2367 C   0  0  0  0  0  0  0  0  0  0  0  0
   -4.1485   -2.4140    0.9201 C   0  0  0  0  0  0  0  0  0  0  0  0
   -0.2946    1.6411    1.4246 O   0  0  0  0  0  0  0  0  0  0  0  0
    0.3632    2.1733    0.2575 C   0  0  0  0  0  0  0  0  0  0  0  0
    1.5944    2.9198    0.8016 C   0  0  0  0  0  0  0  0  0  0  0  0
   -0.5601    3.2233   -0.3889 C   0  0  0  0  0  0  0  0  0  0  0  0
   -1.2175    0.8236   -2.1521 O   0  0  0  0  0  0  0  0  0  0  0  0
   -0.7635    0.6749   -3.4249 C   0  0  0  0  0  0  0  0  0  0  0  0
    0.2786    0.1221   -3.7426 O   0  0  0  0  0  0  0  0  0  0  0  0
   -1.7191    1.3078   -4.3882 C   0  0  0  0  0  0  0  0  0  0  0  0
    4.6619   -2.5047    1.7194 C   0  0  0  0  0  0  0  0  0  0  0  0
    2.1564   -0.1890    2.2332 H   0  0  0  0  0  0  0  0  0  0  0  0
    1.7736   -1.9259    2.1295 H   0  0  0  0  0  0  0  0  0  0  0  0
    2.9378   -1.3119    3.3180 H   0  0  0  0  0  0  0  0  0  0  0  0
    4.7655   -0.9459   -0.4420 H   0  0  0  0  0  0  0  0  0  0  0  0
    1.2222    1.5136   -1.6280 H   0  0  0  0  0  0  0  0  0  0  0  0
   -0.0510   -0.7856   -1.5029 H   0  0  0  0  0  0  0  0  0  0  0  0
   -1.8996    0.9116    3.2415 H   0  0  0  0  0  0  0  0  0  0  0  0
   -3.6165   -0.8539    3.1023 H   0  0  0  0  0  0  0  0  0  0  0  0
   -5.0066   -3.8527   -0.3759 H   0  0  0  0  0  0  0  0  0  0  0  0
   -4.7897   -2.6435    1.7641 H   0  0  0  0  0  0  0  0  0  0  0  0
    2.1909    3.3567   -0.0056 H   0  0  0  0  0  0  0  0  0  0  0  0
    1.2921    3.7280    1.4787 H   0  0  0  0  0  0  0  0  0  0  0  0
    2.2323    2.2615    1.4005 H   0  0  0  0  0  0  0  0  0  0  0  0
   -0.7643    4.0421    0.3116 H   0  0  0  0  0  0  0  0  0  0  0  0
   -1.5412    2.8144   -0.6469 H   0  0  0  0  0  0  0  0  0  0  0  0
   -0.1099    3.6490   -1.2916 H   0  0  0  0  0  0  0  0  0  0  0  0
   -1.3615    1.1505   -5.4097 H   0  0  0  0  0  0  0  0  0  0  0  0
   -1.7779    2.3824   -4.1986 H   0  0  0  0  0  0  0  0  0  0  0  0
   -2.7043    0.8448   -4.2908 H   0  0  0  0  0  0  0  0  0  0  0  0
    5.4490   -2.6616    0.9742 H   0  0  0  0  0  0  0  0  0  0  0  0
    5.1472   -2.2429    2.6653 H   0  0  0  0  0  0  0  0  0  0  0  0
    4.1346   -3.4556    1.8492 H   0  0  0  0  0  0  0  0  0  0  0  0
  1  2  1  0
  2  3  2  3
  3  4  1  0
  4  5  2  0
  4  6  1  0
  6  7  1  0
  7  8  1  0
  8  9  1  0
  9 10  2  0
 10 11  1  0
 11 12  2  0
 12 13  1  0
 13 14  2  0
 14 15  1  0
 15 16  1  0
 16 17  2  0
 16 18  1  0
 18 19  2  0
 10 20  1  0
 20 21  1  0
 21 22  1  0
 21 23  1  0
  8 24  1  0
 24 25  1  0
 25 26  2  0
 25 27  1  0
  2 28  1  0
 21  7  1  0
 14  9  1  0
 19 13  1  0
  1 29  1  0
  1 30  1  0
  1 31  1  0
  3 32  1  0
  7 33  1  0
  8 34  1  0
 11 35  1  0
 12 36  1  0
 18 37  1  0
 19 38  1  0
 22 39  1  0
 22 40  1  0
 22 41  1  0
 23 42  1  0
 23 43  1  0
 23 44  1  0
 27 45  1  0
 27 46  1  0
 27 47  1  0
 28 48  1  0
 28 49  1  0
 28 50  1  0
M  END
>  <Name>  (294) 
Samidin

>  <PubChem ID>  (294) 
442150

>  <CDB ID>  (294) 
CDB0294

>  <Smiles>  (294) 
CC(=CC(=O)OC1C(C2=C(C=CC3=C2OC(=O)C=C3)OC1(C)C)OC(=O)C)C

>  <Chemical class>  (294) 
7-Oxygenated Coumarins

>  <Natural source>  (294) 
Ammi visnaga

>  <Molecular Formula>  (294) 
C21H22O7

>  <InChI-Key>  (294) 
FNVCLGWRMXTDSM-UHFFFAOYSA-N

>  <Total Molweight>  (294) 
386.399

>  <cLogP>  (294) 
3.342

>  <cLogS>  (294) 
-3.803

>  <H-Acceptors>  (294) 
7

>  <H-Donors>  (294) 
0

>  <Rotatable Bonds>  (294) 
5

>  <Polar Surface Area>  (294) 
88.13

$$$$
CDB0295
     RDKit          3D

 33 35  0  0  0  0  0  0  0  0999 V2000
    2.7840    0.2941   -1.1903 C   0  0  0  0  0  0  0  0  0  0  0  0
    2.3912   -0.4101    0.1194 C   0  0  0  0  0  0  0  0  0  0  0  0
    1.7968    0.5396    1.1738 C   0  0  0  0  0  0  0  0  0  0  0  0
    0.4620    1.1168    0.6867 C   0  0  0  0  0  0  0  0  0  0  0  0
   -0.4118    0.0410    0.1052 C   0  0  0  0  0  0  0  0  0  0  0  0
    0.1524   -1.1772   -0.2893 C   0  0  0  0  0  0  0  0  0  0  0  0
    1.4811   -1.4866   -0.1833 O   0  0  0  0  0  0  0  0  0  0  0  0
   -0.6445   -2.1921   -0.8293 C   0  0  0  0  0  0  0  0  0  0  0  0
   -2.0134   -1.9974   -1.0193 C   0  0  0  0  0  0  0  0  0  0  0  0
   -2.5918   -0.7786   -0.6727 C   0  0  0  0  0  0  0  0  0  0  0  0
   -1.7856    0.2215   -0.1224 C   0  0  0  0  0  0  0  0  0  0  0  0
   -2.3560    1.4714    0.2176 O   0  0  0  0  0  0  0  0  0  0  0  0
   -3.7064    1.7405    0.0322 C   0  0  0  0  0  0  0  0  0  0  0  0
   -4.2001    2.8207    0.3306 O   0  0  0  0  0  0  0  0  0  0  0  0
   -4.5256    0.6613   -0.5395 C   0  0  0  0  0  0  0  0  0  0  0  0
   -4.0098   -0.5251   -0.8731 C   0  0  0  0  0  0  0  0  0  0  0  0
   -0.1289    1.7797    1.8136 O   0  0  0  0  0  0  0  0  0  0  0  0
    2.6914    1.6124    1.4997 O   0  0  0  0  0  0  0  0  0  0  0  0
    3.6517   -1.0808    0.6912 C   0  0  0  0  0  0  0  0  0  0  0  0
    3.2134   -0.4238   -1.8992 H   0  0  0  0  0  0  0  0  0  0  0  0
    1.9169    0.7300   -1.6968 H   0  0  0  0  0  0  0  0  0  0  0  0
    3.5178    1.0884   -1.0199 H   0  0  0  0  0  0  0  0  0  0  0  0
    1.6219   -0.0158    2.1060 H   0  0  0  0  0  0  0  0  0  0  0  0
    0.6371    1.8908   -0.0700 H   0  0  0  0  0  0  0  0  0  0  0  0
   -0.1894   -3.1387   -1.1137 H   0  0  0  0  0  0  0  0  0  0  0  0
   -2.6090   -2.8003   -1.4465 H   0  0  0  0  0  0  0  0  0  0  0  0
   -5.5765    0.8864   -0.6746 H   0  0  0  0  0  0  0  0  0  0  0  0
   -4.6327   -1.3073   -1.2936 H   0  0  0  0  0  0  0  0  0  0  0  0
   -1.0260    2.0512    1.5456 H   0  0  0  0  0  0  0  0  0  0  0  0
    2.1805    2.1917    2.1003 H   0  0  0  0  0  0  0  0  0  0  0  0
    4.4370   -0.3530    0.9195 H   0  0  0  0  0  0  0  0  0  0  0  0
    4.0572   -1.8156   -0.0144 H   0  0  0  0  0  0  0  0  0  0  0  0
    3.4150   -1.6352    1.6068 H   0  0  0  0  0  0  0  0  0  0  0  0
  1  2  1  0
  2  3  1  0
  3  4  1  0
  4  5  1  0
  5  6  2  0
  6  7  1  0
  6  8  1  0
  8  9  2  0
  9 10  1  0
 10 11  2  0
 11 12  1  0
 12 13  1  0
 13 14  2  0
 13 15  1  0
 15 16  2  0
  4 17  1  0
  3 18  1  0
  2 19  1  0
  7  2  1  0
 11  5  1  0
 16 10  1  0
  1 20  1  0
  1 21  1  0
  1 22  1  0
  3 23  1  0
  4 24  1  0
  8 25  1  0
  9 26  1  0
 15 27  1  0
 16 28  1  0
 17 29  1  0
 18 30  1  0
 19 31  1  0
 19 32  1  0
 19 33  1  0
M  END
>  <Name>  (295) 
(-)-Trans-Khellactone

>  <PubChem ID>  (295) 
9992853

>  <CDB ID>  (295) 
CDB0295

>  <Smiles>  (295) 
CC1(C(C(C2=C(O1)C=CC3=C2OC(=O)C=C3)O)O)C

>  <Chemical class>  (295) 
7-Oxygenated Coumarins

>  <Natural source>  (295) 
Angelica purpureafolia

>  <Molecular Formula>  (295) 
C14H14O5

>  <InChI-Key>  (295) 
HKXQUNNSKMWIKJ-UHFFFAOYSA-N

>  <Total Molweight>  (295) 
262.26

>  <cLogP>  (295) 
1.1098

>  <cLogS>  (295) 
-2.547

>  <H-Acceptors>  (295) 
5

>  <H-Donors>  (295) 
2

>  <Rotatable Bonds>  (295) 
0

>  <Polar Surface Area>  (295) 
75.99

$$$$
CDB0296
     RDKit          3D

 47 49  0  0  0  0  0  0  0  0999 V2000
    5.0512    2.0311   -0.1011 C   0  0  0  0  0  0  0  0  0  0  0  0
    5.0122    0.5688   -0.5451 C   0  0  0  0  0  0  0  0  0  0  0  0
    5.5954   -0.3510    0.5277 C   0  0  0  0  0  0  0  0  0  0  0  0
    3.6161    0.1264   -1.0107 C   0  0  0  0  0  0  0  0  0  0  0  0
    2.5188    0.1463    0.0339 C   0  0  0  0  0  0  0  0  0  0  0  0
    2.6379    0.4899    1.1988 O   0  0  0  0  0  0  0  0  0  0  0  0
    1.3657   -0.3083   -0.5347 O   0  0  0  0  0  0  0  0  0  0  0  0
    0.1697   -0.2551    0.2813 C   0  0  0  0  0  0  0  0  0  0  0  0
   -0.9503    0.3539   -0.5776 C   0  0  0  0  0  0  0  0  0  0  0  0
   -2.3097    0.1054    0.0182 C   0  0  0  0  0  0  0  0  0  0  0  0
   -2.4711   -0.8513    1.0241 C   0  0  0  0  0  0  0  0  0  0  0  0
   -3.7245   -1.0786    1.6022 C   0  0  0  0  0  0  0  0  0  0  0  0
   -4.8496   -0.3826    1.1583 C   0  0  0  0  0  0  0  0  0  0  0  0
   -4.7246    0.5432    0.1253 C   0  0  0  0  0  0  0  0  0  0  0  0
   -3.4630    0.7694   -0.4318 C   0  0  0  0  0  0  0  0  0  0  0  0
   -3.3241    1.6927   -1.4960 O   0  0  0  0  0  0  0  0  0  0  0  0
   -4.4067    2.3977   -2.0066 C   0  0  0  0  0  0  0  0  0  0  0  0
   -4.2869    3.1943   -2.9291 O   0  0  0  0  0  0  0  0  0  0  0  0
   -5.7156    2.1450   -1.3853 C   0  0  0  0  0  0  0  0  0  0  0  0
   -5.8735    1.2753   -0.3836 C   0  0  0  0  0  0  0  0  0  0  0  0
   -1.4591   -1.6230    1.5228 O   0  0  0  0  0  0  0  0  0  0  0  0
   -0.2315   -1.6623    0.7690 C   0  0  0  0  0  0  0  0  0  0  0  0
   -0.3760   -2.6896   -0.3689 C   0  0  0  0  0  0  0  0  0  0  0  0
    0.8241   -2.2014    1.7496 C   0  0  0  0  0  0  0  0  0  0  0  0
   -0.6782    1.7548   -0.7134 O   0  0  0  0  0  0  0  0  0  0  0  0
    4.4887    2.1980    0.8220 H   0  0  0  0  0  0  0  0  0  0  0  0
    4.6365    2.6842   -0.8760 H   0  0  0  0  0  0  0  0  0  0  0  0
    6.0840    2.3473    0.0818 H   0  0  0  0  0  0  0  0  0  0  0  0
    5.6690    0.4875   -1.4221 H   0  0  0  0  0  0  0  0  0  0  0  0
    6.6409   -0.0913    0.7264 H   0  0  0  0  0  0  0  0  0  0  0  0
    5.5694   -1.3957    0.2006 H   0  0  0  0  0  0  0  0  0  0  0  0
    5.0532   -0.2772    1.4748 H   0  0  0  0  0  0  0  0  0  0  0  0
    3.2954    0.7760   -1.8344 H   0  0  0  0  0  0  0  0  0  0  0  0
    3.6831   -0.8987   -1.3960 H   0  0  0  0  0  0  0  0  0  0  0  0
    0.3151    0.4063    1.1474 H   0  0  0  0  0  0  0  0  0  0  0  0
   -0.9195   -0.0700   -1.5890 H   0  0  0  0  0  0  0  0  0  0  0  0
   -3.8237   -1.8135    2.3984 H   0  0  0  0  0  0  0  0  0  0  0  0
   -5.8132   -0.5816    1.6205 H   0  0  0  0  0  0  0  0  0  0  0  0
   -6.5476    2.7082   -1.7902 H   0  0  0  0  0  0  0  0  0  0  0  0
   -6.8485    1.1044    0.0601 H   0  0  0  0  0  0  0  0  0  0  0  0
   -0.6714   -3.6670    0.0309 H   0  0  0  0  0  0  0  0  0  0  0  0
    0.5592   -2.8154   -0.9240 H   0  0  0  0  0  0  0  0  0  0  0  0
   -1.1600   -2.4084   -1.0792 H   0  0  0  0  0  0  0  0  0  0  0  0
    0.9565   -1.5150    2.5938 H   0  0  0  0  0  0  0  0  0  0  0  0
    1.7950   -2.3560    1.2691 H   0  0  0  0  0  0  0  0  0  0  0  0
    0.5022   -3.1566    2.1816 H   0  0  0  0  0  0  0  0  0  0  0  0
   -1.4110    2.1433   -1.2237 H   0  0  0  0  0  0  0  0  0  0  0  0
  1  2  1  0
  2  3  1  0
  2  4  1  0
  4  5  1  0
  5  6  2  0
  5  7  1  0
  7  8  1  0
  8  9  1  0
  9 10  1  0
 10 11  2  0
 11 12  1  0
 12 13  2  0
 13 14  1  0
 14 15  2  0
 15 16  1  0
 16 17  1  0
 17 18  2  0
 17 19  1  0
 19 20  2  0
 11 21  1  0
 21 22  1  0
 22 23  1  0
 22 24  1  0
  9 25  1  0
 22  8  1  0
 15 10  1  0
 20 14  1  0
  1 26  1  0
  1 27  1  0
  1 28  1  0
  2 29  1  0
  3 30  1  0
  3 31  1  0
  3 32  1  0
  4 33  1  0
  4 34  1  0
  8 35  1  0
  9 36  1  0
 12 37  1  0
 13 38  1  0
 19 39  1  0
 20 40  1  0
 23 41  1  0
 23 42  1  0
 23 43  1  0
 24 44  1  0
 24 45  1  0
 24 46  1  0
 25 47  1  0
M  END
>  <Name>  (296) 
Junosmarin

>  <PubChem ID>  (296) 
14055878

>  <CDB ID>  (296) 
CDB0296

>  <Smiles>  (296) 
CC(C)CC(=O)OC1C(C2=C(C=CC3=C2OC(=O)C=C3)OC1(C)C)O

>  <Chemical class>  (296) 
7-Oxygenated Coumarins

>  <Natural source>  (296) 
Citrus junos

>  <Molecular Formula>  (296) 
C19H22O6

>  <InChI-Key>  (296) 
GWZZKJQYTUFZHD-UHFFFAOYSA-N

>  <Total Molweight>  (296) 
346.378

>  <cLogP>  (296) 
2.7215

>  <cLogS>  (296) 
-3.657

>  <H-Acceptors>  (296) 
6

>  <H-Donors>  (296) 
1

>  <Rotatable Bonds>  (296) 
4

>  <Polar Surface Area>  (296) 
82.06

$$$$
CDB0297
     RDKit          3D

 50 52  0  0  0  0  0  0  0  0999 V2000
    5.6244    0.1393   -1.3599 C   0  0  0  0  0  0  0  0  0  0  0  0
    4.4219    0.3301   -0.4930 C   0  0  0  0  0  0  0  0  0  0  0  0
    3.1487   -0.0392   -0.7419 C   0  0  0  0  0  0  0  0  0  0  0  0
    2.6590   -0.7420   -1.9721 C   0  0  0  0  0  0  0  0  0  0  0  0
    2.1429    0.2853    0.3185 C   0  0  0  0  0  0  0  0  0  0  0  0
    2.4054    0.7932    1.3996 O   0  0  0  0  0  0  0  0  0  0  0  0
    0.8965   -0.0709   -0.0880 O   0  0  0  0  0  0  0  0  0  0  0  0
   -0.1445    0.1918    0.8697 C   0  0  0  0  0  0  0  0  0  0  0  0
   -0.6265    1.6466    0.7186 C   0  0  0  0  0  0  0  0  0  0  0  0
   -1.8857    1.8736    1.5824 C   0  0  0  0  0  0  0  0  0  0  0  0
   -2.9512    0.9678    1.2332 O   0  0  0  0  0  0  0  0  0  0  0  0
   -2.6126   -0.3121    0.8882 C   0  0  0  0  0  0  0  0  0  0  0  0
   -1.3024   -0.7642    0.6926 C   0  0  0  0  0  0  0  0  0  0  0  0
   -1.1227   -2.1287    0.4077 C   0  0  0  0  0  0  0  0  0  0  0  0
   -2.1996   -3.0077    0.2563 C   0  0  0  0  0  0  0  0  0  0  0  0
   -3.4962   -2.5229    0.4118 C   0  0  0  0  0  0  0  0  0  0  0  0
   -3.6984   -1.1801    0.7325 C   0  0  0  0  0  0  0  0  0  0  0  0
   -1.9455   -4.4057   -0.0551 C   0  0  0  0  0  0  0  0  0  0  0  0
   -0.6887   -4.8381   -0.1896 C   0  0  0  0  0  0  0  0  0  0  0  0
    0.4702   -3.9462   -0.0291 C   0  0  0  0  0  0  0  0  0  0  0  0
    1.6121   -4.3664   -0.1726 O   0  0  0  0  0  0  0  0  0  0  0  0
    0.1972   -2.6243    0.2895 O   0  0  0  0  0  0  0  0  0  0  0  0
   -1.6040    1.7363    3.0883 C   0  0  0  0  0  0  0  0  0  0  0  0
   -2.4484    3.2840    1.3308 C   0  0  0  0  0  0  0  0  0  0  0  0
   -0.9755    1.8983   -0.6751 O   0  0  0  0  0  0  0  0  0  0  0  0
   -0.0439    2.5031   -1.4548 C   0  0  0  0  0  0  0  0  0  0  0  0
    1.0528    2.8936   -1.0849 O   0  0  0  0  0  0  0  0  0  0  0  0
   -0.5561    2.6271   -2.8565 C   0  0  0  0  0  0  0  0  0  0  0  0
    6.3669   -0.4655   -0.8298 H   0  0  0  0  0  0  0  0  0  0  0  0
    6.0749    1.1123   -1.5806 H   0  0  0  0  0  0  0  0  0  0  0  0
    5.4112   -0.3510   -2.3109 H   0  0  0  0  0  0  0  0  0  0  0  0
    4.6447    0.8382    0.4468 H   0  0  0  0  0  0  0  0  0  0  0  0
    1.9202   -0.1260   -2.4960 H   0  0  0  0  0  0  0  0  0  0  0  0
    2.1929   -1.6968   -1.7076 H   0  0  0  0  0  0  0  0  0  0  0  0
    3.4524   -0.9659   -2.6880 H   0  0  0  0  0  0  0  0  0  0  0  0
    0.2321    0.0167    1.8860 H   0  0  0  0  0  0  0  0  0  0  0  0
    0.1617    2.3428    1.0300 H   0  0  0  0  0  0  0  0  0  0  0  0
   -4.3571   -3.1771    0.3000 H   0  0  0  0  0  0  0  0  0  0  0  0
   -4.7102   -0.8053    0.8716 H   0  0  0  0  0  0  0  0  0  0  0  0
   -2.7850   -5.0816   -0.1766 H   0  0  0  0  0  0  0  0  0  0  0  0
   -0.4606   -5.8706   -0.4238 H   0  0  0  0  0  0  0  0  0  0  0  0
   -2.5018    1.9708    3.6724 H   0  0  0  0  0  0  0  0  0  0  0  0
   -0.8008    2.4084    3.4072 H   0  0  0  0  0  0  0  0  0  0  0  0
   -1.3322    0.7132    3.3664 H   0  0  0  0  0  0  0  0  0  0  0  0
   -2.7836    3.4029    0.2944 H   0  0  0  0  0  0  0  0  0  0  0  0
   -1.7055    4.0581    1.5493 H   0  0  0  0  0  0  0  0  0  0  0  0
   -3.3322    3.4681    1.9531 H   0  0  0  0  0  0  0  0  0  0  0  0
    0.1981    3.1209   -3.4757 H   0  0  0  0  0  0  0  0  0  0  0  0
   -1.4660    3.2323   -2.8667 H   0  0  0  0  0  0  0  0  0  0  0  0
   -0.7491    1.6335   -3.2688 H   0  0  0  0  0  0  0  0  0  0  0  0
  1  2  1  0
  2  3  2  3
  3  4  1  0
  3  5  1  0
  5  6  2  0
  5  7  1  0
  7  8  1  0
  8  9  1  0
  9 10  1  0
 10 11  1  0
 11 12  1  0
 12 13  2  0
 13 14  1  0
 14 15  2  0
 15 16  1  0
 16 17  2  0
 15 18  1  0
 18 19  2  0
 19 20  1  0
 20 21  2  0
 20 22  1  0
 10 23  1  0
 10 24  1  0
  9 25  1  0
 25 26  1  0
 26 27  2  0
 26 28  1  0
 13  8  1  0
 17 12  1  0
 22 14  1  0
  1 29  1  0
  1 30  1  0
  1 31  1  0
  2 32  1  0
  4 33  1  0
  4 34  1  0
  4 35  1  0
  8 36  1  0
  9 37  1  0
 16 38  1  0
 17 39  1  0
 18 40  1  0
 19 41  1  0
 23 42  1  0
 23 43  1  0
 23 44  1  0
 24 45  1  0
 24 46  1  0
 24 47  1  0
 28 48  1  0
 28 49  1  0
 28 50  1  0
M  END
>  <Name>  (297) 
Peucedanocoumarin Iii

>  <PubChem ID>  (297) 
1032882

>  <CDB ID>  (297) 
CDB0297

>  <Smiles>  (297) 
CC=C(C)C(=O)OC1C(C(OC2=C1C3=C(C=C2)C=CC(=O)O3)(C)C)OC(=O)C

>  <Chemical class>  (297) 
7-Oxygenated Coumarins

>  <Natural source>  (297) 
Peucedanum praeruptorum

>  <Molecular Formula>  (297) 
C21H22O7

>  <InChI-Key>  (297) 
LYUZYPKZQDYMEE-UHFFFAOYSA-N

>  <Total Molweight>  (297) 
386.399

>  <cLogP>  (297) 
3.342

>  <cLogS>  (297) 
-3.803

>  <H-Acceptors>  (297) 
7

>  <H-Donors>  (297) 
0

>  <Rotatable Bonds>  (297) 
5

>  <Polar Surface Area>  (297) 
88.13

$$$$
CDB0298
     RDKit          3D

 50 52  0  0  0  0  0  0  0  0999 V2000
    5.6244    0.1393   -1.3599 C   0  0  0  0  0  0  0  0  0  0  0  0
    4.4219    0.3301   -0.4930 C   0  0  0  0  0  0  0  0  0  0  0  0
    3.1487   -0.0392   -0.7419 C   0  0  0  0  0  0  0  0  0  0  0  0
    2.6590   -0.7420   -1.9721 C   0  0  0  0  0  0  0  0  0  0  0  0
    2.1429    0.2853    0.3185 C   0  0  0  0  0  0  0  0  0  0  0  0
    2.4054    0.7932    1.3996 O   0  0  0  0  0  0  0  0  0  0  0  0
    0.8965   -0.0709   -0.0880 O   0  0  0  0  0  0  0  0  0  0  0  0
   -0.1445    0.1918    0.8697 C   0  0  0  0  0  0  0  0  0  0  0  0
   -0.6265    1.6466    0.7186 C   0  0  0  0  0  0  0  0  0  0  0  0
   -1.8857    1.8736    1.5824 C   0  0  0  0  0  0  0  0  0  0  0  0
   -2.9512    0.9678    1.2332 O   0  0  0  0  0  0  0  0  0  0  0  0
   -2.6126   -0.3121    0.8882 C   0  0  0  0  0  0  0  0  0  0  0  0
   -1.3024   -0.7642    0.6926 C   0  0  0  0  0  0  0  0  0  0  0  0
   -1.1227   -2.1287    0.4077 C   0  0  0  0  0  0  0  0  0  0  0  0
   -2.1996   -3.0077    0.2563 C   0  0  0  0  0  0  0  0  0  0  0  0
   -3.4962   -2.5229    0.4118 C   0  0  0  0  0  0  0  0  0  0  0  0
   -3.6984   -1.1801    0.7325 C   0  0  0  0  0  0  0  0  0  0  0  0
   -1.9455   -4.4057   -0.0551 C   0  0  0  0  0  0  0  0  0  0  0  0
   -0.6887   -4.8381   -0.1896 C   0  0  0  0  0  0  0  0  0  0  0  0
    0.4702   -3.9462   -0.0291 C   0  0  0  0  0  0  0  0  0  0  0  0
    1.6121   -4.3664   -0.1726 O   0  0  0  0  0  0  0  0  0  0  0  0
    0.1972   -2.6243    0.2895 O   0  0  0  0  0  0  0  0  0  0  0  0
   -1.6040    1.7363    3.0883 C   0  0  0  0  0  0  0  0  0  0  0  0
   -2.4484    3.2840    1.3308 C   0  0  0  0  0  0  0  0  0  0  0  0
   -0.9755    1.8983   -0.6751 O   0  0  0  0  0  0  0  0  0  0  0  0
   -0.0439    2.5031   -1.4548 C   0  0  0  0  0  0  0  0  0  0  0  0
    1.0528    2.8936   -1.0849 O   0  0  0  0  0  0  0  0  0  0  0  0
   -0.5561    2.6271   -2.8565 C   0  0  0  0  0  0  0  0  0  0  0  0
    6.3669   -0.4655   -0.8298 H   0  0  0  0  0  0  0  0  0  0  0  0
    6.0749    1.1123   -1.5806 H   0  0  0  0  0  0  0  0  0  0  0  0
    5.4112   -0.3510   -2.3109 H   0  0  0  0  0  0  0  0  0  0  0  0
    4.6447    0.8382    0.4468 H   0  0  0  0  0  0  0  0  0  0  0  0
    1.9202   -0.1260   -2.4960 H   0  0  0  0  0  0  0  0  0  0  0  0
    2.1929   -1.6968   -1.7076 H   0  0  0  0  0  0  0  0  0  0  0  0
    3.4524   -0.9659   -2.6880 H   0  0  0  0  0  0  0  0  0  0  0  0
    0.2321    0.0167    1.8860 H   0  0  0  0  0  0  0  0  0  0  0  0
    0.1617    2.3428    1.0300 H   0  0  0  0  0  0  0  0  0  0  0  0
   -4.3571   -3.1771    0.3000 H   0  0  0  0  0  0  0  0  0  0  0  0
   -4.7102   -0.8053    0.8716 H   0  0  0  0  0  0  0  0  0  0  0  0
   -2.7850   -5.0816   -0.1766 H   0  0  0  0  0  0  0  0  0  0  0  0
   -0.4606   -5.8706   -0.4238 H   0  0  0  0  0  0  0  0  0  0  0  0
   -2.5018    1.9708    3.6724 H   0  0  0  0  0  0  0  0  0  0  0  0
   -0.8008    2.4084    3.4072 H   0  0  0  0  0  0  0  0  0  0  0  0
   -1.3322    0.7132    3.3664 H   0  0  0  0  0  0  0  0  0  0  0  0
   -2.7836    3.4029    0.2944 H   0  0  0  0  0  0  0  0  0  0  0  0
   -1.7055    4.0581    1.5493 H   0  0  0  0  0  0  0  0  0  0  0  0
   -3.3322    3.4681    1.9531 H   0  0  0  0  0  0  0  0  0  0  0  0
    0.1981    3.1209   -3.4757 H   0  0  0  0  0  0  0  0  0  0  0  0
   -1.4660    3.2323   -2.8667 H   0  0  0  0  0  0  0  0  0  0  0  0
   -0.7491    1.6335   -3.2688 H   0  0  0  0  0  0  0  0  0  0  0  0
  1  2  1  0
  2  3  2  3
  3  4  1  0
  3  5  1  0
  5  6  2  0
  5  7  1  0
  7  8  1  0
  8  9  1  0
  9 10  1  0
 10 11  1  0
 11 12  1  0
 12 13  2  0
 13 14  1  0
 14 15  2  0
 15 16  1  0
 16 17  2  0
 15 18  1  0
 18 19  2  0
 19 20  1  0
 20 21  2  0
 20 22  1  0
 10 23  1  0
 10 24  1  0
  9 25  1  0
 25 26  1  0
 26 27  2  0
 26 28  1  0
 13  8  1  0
 17 12  1  0
 22 14  1  0
  1 29  1  0
  1 30  1  0
  1 31  1  0
  2 32  1  0
  4 33  1  0
  4 34  1  0
  4 35  1  0
  8 36  1  0
  9 37  1  0
 16 38  1  0
 17 39  1  0
 18 40  1  0
 19 41  1  0
 23 42  1  0
 23 43  1  0
 23 44  1  0
 24 45  1  0
 24 46  1  0
 24 47  1  0
 28 48  1  0
 28 49  1  0
 28 50  1  0
M  END
>  <Name>  (298) 
Peucedanocoumarin Ii

>  <PubChem ID>  (298) 
5434471

>  <CDB ID>  (298) 
CDB0298

>  <Smiles>  (298) 
CC=C(C)C(=O)OC1C(C(OC2=C1C3=C(C=C2)C=CC(=O)O3)(C)C)OC(=O)C

>  <Chemical class>  (298) 
7-Oxygenated Coumarins

>  <Natural source>  (298) 
Peucedanum praeruptorum

>  <Molecular Formula>  (298) 
C21H22O7

>  <InChI-Key>  (298) 
LYUZYPKZQDYMEE-UHFFFAOYSA-N

>  <Total Molweight>  (298) 
386.399

>  <cLogP>  (298) 
3.342

>  <cLogS>  (298) 
-3.803

>  <H-Acceptors>  (298) 
7

>  <H-Donors>  (298) 
0

>  <Rotatable Bonds>  (298) 
5

>  <Polar Surface Area>  (298) 
88.13

$$$$
CDB0299
     RDKit          3D

 52 54  0  0  0  0  0  0  0  0999 V2000
    4.9104    2.1537    0.8418 C   0  0  0  0  0  0  0  0  0  0  0  0
    3.5943    1.7441    0.1974 C   0  0  0  0  0  0  0  0  0  0  0  0
    3.7055    0.4852   -0.6719 C   0  0  0  0  0  0  0  0  0  0  0  0
    4.6251    0.6799   -1.8777 C   0  0  0  0  0  0  0  0  0  0  0  0
    2.3218    0.0588   -1.1389 C   0  0  0  0  0  0  0  0  0  0  0  0
    1.8809    0.2118   -2.2692 O   0  0  0  0  0  0  0  0  0  0  0  0
    1.6517   -0.5429   -0.1169 O   0  0  0  0  0  0  0  0  0  0  0  0
    0.3436   -1.0922   -0.4130 C   0  0  0  0  0  0  0  0  0  0  0  0
   -0.7662   -0.0833   -0.0577 C   0  0  0  0  0  0  0  0  0  0  0  0
   -2.1012   -0.7640    0.1306 C   0  0  0  0  0  0  0  0  0  0  0  0
   -2.1893   -2.1553    0.2082 C   0  0  0  0  0  0  0  0  0  0  0  0
   -3.4286   -2.7891    0.3443 C   0  0  0  0  0  0  0  0  0  0  0  0
   -4.6022   -2.0410    0.4462 C   0  0  0  0  0  0  0  0  0  0  0  0
   -4.5386   -0.6498    0.4165 C   0  0  0  0  0  0  0  0  0  0  0  0
   -3.2940   -0.0318    0.2662 C   0  0  0  0  0  0  0  0  0  0  0  0
   -3.2153    1.3812    0.2532 O   0  0  0  0  0  0  0  0  0  0  0  0
   -4.3414    2.1869    0.3345 C   0  0  0  0  0  0  0  0  0  0  0  0
   -4.2800    3.4092    0.2798 O   0  0  0  0  0  0  0  0  0  0  0  0
   -5.6334    1.5009    0.4933 C   0  0  0  0  0  0  0  0  0  0  0  0
   -5.7345    0.1693    0.5349 C   0  0  0  0  0  0  0  0  0  0  0  0
   -1.1125   -2.9943    0.1556 O   0  0  0  0  0  0  0  0  0  0  0  0
    0.1734   -2.3962    0.3965 C   0  0  0  0  0  0  0  0  0  0  0  0
    1.2004   -3.4351   -0.0913 C   0  0  0  0  0  0  0  0  0  0  0  0
    0.3774   -2.2165    1.9127 C   0  0  0  0  0  0  0  0  0  0  0  0
   -0.9021    0.8496   -1.1517 O   0  0  0  0  0  0  0  0  0  0  0  0
   -0.2874    2.0516   -1.0011 C   0  0  0  0  0  0  0  0  0  0  0  0
    0.3885    2.3887   -0.0394 O   0  0  0  0  0  0  0  0  0  0  0  0
   -0.5527    2.9157   -2.1947 C   0  0  0  0  0  0  0  0  0  0  0  0
    5.3375    1.3293    1.4214 H   0  0  0  0  0  0  0  0  0  0  0  0
    4.7487    2.9969    1.5212 H   0  0  0  0  0  0  0  0  0  0  0  0
    5.6433    2.4692    0.0936 H   0  0  0  0  0  0  0  0  0  0  0  0
    2.8627    1.5733    0.9968 H   0  0  0  0  0  0  0  0  0  0  0  0
    3.2090    2.5802   -0.3992 H   0  0  0  0  0  0  0  0  0  0  0  0
    4.1146   -0.3437   -0.0794 H   0  0  0  0  0  0  0  0  0  0  0  0
    4.3161    1.5422   -2.4789 H   0  0  0  0  0  0  0  0  0  0  0  0
    5.6626    0.8342   -1.5662 H   0  0  0  0  0  0  0  0  0  0  0  0
    4.6055   -0.2010   -2.5292 H   0  0  0  0  0  0  0  0  0  0  0  0
    0.2689   -1.3400   -1.4818 H   0  0  0  0  0  0  0  0  0  0  0  0
   -0.5213    0.4370    0.8772 H   0  0  0  0  0  0  0  0  0  0  0  0
   -3.4760   -3.8753    0.3833 H   0  0  0  0  0  0  0  0  0  0  0  0
   -5.5527   -2.5567    0.5569 H   0  0  0  0  0  0  0  0  0  0  0  0
   -6.5017    2.1434    0.5734 H   0  0  0  0  0  0  0  0  0  0  0  0
   -6.6981   -0.3147    0.6519 H   0  0  0  0  0  0  0  0  0  0  0  0
    1.0520   -4.3967    0.4142 H   0  0  0  0  0  0  0  0  0  0  0  0
    2.2313   -3.1110    0.0838 H   0  0  0  0  0  0  0  0  0  0  0  0
    1.0757   -3.6307   -1.1627 H   0  0  0  0  0  0  0  0  0  0  0  0
    0.2215   -3.1673    2.4362 H   0  0  0  0  0  0  0  0  0  0  0  0
   -0.3427   -1.5144    2.3447 H   0  0  0  0  0  0  0  0  0  0  0  0
    1.3845   -1.8576    2.1484 H   0  0  0  0  0  0  0  0  0  0  0  0
   -0.1635    2.4341   -3.0952 H   0  0  0  0  0  0  0  0  0  0  0  0
   -0.0453    3.8761   -2.0664 H   0  0  0  0  0  0  0  0  0  0  0  0
   -1.6262    3.0980   -2.2880 H   0  0  0  0  0  0  0  0  0  0  0  0
  1  2  1  0
  2  3  1  0
  3  4  1  0
  3  5  1  0
  5  6  2  0
  5  7  1  0
  7  8  1  0
  8  9  1  0
  9 10  1  0
 10 11  2  0
 11 12  1  0
 12 13  2  0
 13 14  1  0
 14 15  2  0
 15 16  1  0
 16 17  1  0
 17 18  2  0
 17 19  1  0
 19 20  2  0
 11 21  1  0
 21 22  1  0
 22 23  1  0
 22 24  1  0
  9 25  1  0
 25 26  1  0
 26 27  2  0
 26 28  1  0
 22  8  1  0
 15 10  1  0
 20 14  1  0
  1 29  1  0
  1 30  1  0
  1 31  1  0
  2 32  1  0
  2 33  1  0
  3 34  1  0
  4 35  1  0
  4 36  1  0
  4 37  1  0
  8 38  1  0
  9 39  1  0
 12 40  1  0
 13 41  1  0
 19 42  1  0
 20 43  1  0
 23 44  1  0
 23 45  1  0
 23 46  1  0
 24 47  1  0
 24 48  1  0
 24 49  1  0
 28 50  1  0
 28 51  1  0
 28 52  1  0
M  END
>  <Name>  (299) 
Peucedanocoumarin I

>  <PubChem ID>  (299) 
12314635

>  <CDB ID>  (299) 
CDB0299

>  <Smiles>  (299) 
CCC(C)C(=O)OC1C(C2=C(C=CC3=C2OC(=O)C=C3)OC1(C)C)OC(=O)C

>  <Chemical class>  (299) 
7-Oxygenated Coumarins

>  <Natural source>  (299) 
Peucedanum praeruptorum

>  <Molecular Formula>  (299) 
C21H24O7

>  <InChI-Key>  (299) 
GVBNSPFBYXGREE-UHFFFAOYSA-N

>  <Total Molweight>  (299) 
388.415

>  <cLogP>  (299) 
3.2061

>  <cLogS>  (299) 
-4.067

>  <H-Acceptors>  (299) 
7

>  <H-Donors>  (299) 
0

>  <Rotatable Bonds>  (299) 
6

>  <Polar Surface Area>  (299) 
88.13

$$$$
CDB0300
     RDKit          3D

 59 61  0  0  0  0  0  0  0  0999 V2000
   -2.7465    5.5196    0.5716 C   0  0  0  0  0  0  0  0  0  0  0  0
   -2.1943    4.3131   -0.1169 C   0  0  0  0  0  0  0  0  0  0  0  0
   -2.2651    3.0283    0.2864 C   0  0  0  0  0  0  0  0  0  0  0  0
   -2.8882    2.5367    1.5584 C   0  0  0  0  0  0  0  0  0  0  0  0
   -1.6253    2.0131   -0.6058 C   0  0  0  0  0  0  0  0  0  0  0  0
   -0.8396    2.2755   -1.5037 O   0  0  0  0  0  0  0  0  0  0  0  0
   -2.0562    0.7708   -0.2750 O   0  0  0  0  0  0  0  0  0  0  0  0
   -1.5103   -0.3371   -1.0292 C   0  0  0  0  0  0  0  0  0  0  0  0
   -0.3301   -0.9679   -0.2661 C   0  0  0  0  0  0  0  0  0  0  0  0
   -0.0385   -2.3661   -0.7549 C   0  0  0  0  0  0  0  0  0  0  0  0
   -0.9414   -3.0333   -1.5854 C   0  0  0  0  0  0  0  0  0  0  0  0
   -0.6584   -4.3152   -2.0676 C   0  0  0  0  0  0  0  0  0  0  0  0
    0.5158   -4.9715   -1.6957 C   0  0  0  0  0  0  0  0  0  0  0  0
    1.4119   -4.3467   -0.8312 C   0  0  0  0  0  0  0  0  0  0  0  0
    1.1214   -3.0605   -0.3682 C   0  0  0  0  0  0  0  0  0  0  0  0
    2.0132   -2.4252    0.5287 O   0  0  0  0  0  0  0  0  0  0  0  0
    3.2010   -3.0150    0.9347 C   0  0  0  0  0  0  0  0  0  0  0  0
    3.9920   -2.4528    1.6824 O   0  0  0  0  0  0  0  0  0  0  0  0
    3.4746   -4.3674    0.4236 C   0  0  0  0  0  0  0  0  0  0  0  0
    2.6388   -5.0008   -0.4042 C   0  0  0  0  0  0  0  0  0  0  0  0
   -2.1380   -2.5133   -1.9920 O   0  0  0  0  0  0  0  0  0  0  0  0
   -2.6270   -1.3775   -1.2560 C   0  0  0  0  0  0  0  0  0  0  0  0
   -3.2969   -1.8629    0.0431 C   0  0  0  0  0  0  0  0  0  0  0  0
   -3.7237   -0.7598   -2.1431 C   0  0  0  0  0  0  0  0  0  0  0  0
    0.8450   -0.1606   -0.4946 O   0  0  0  0  0  0  0  0  0  0  0  0
    1.1549    0.7438    0.4745 C   0  0  0  0  0  0  0  0  0  0  0  0
    0.4919    0.9482    1.4817 O   0  0  0  0  0  0  0  0  0  0  0  0
    2.4148    1.4847    0.0885 C   0  0  0  0  0  0  0  0  0  0  0  0
    3.1031    2.1571    1.2856 C   0  0  0  0  0  0  0  0  0  0  0  0
    4.1750    3.1315    0.7946 C   0  0  0  0  0  0  0  0  0  0  0  0
    3.7329    1.1218    2.2209 C   0  0  0  0  0  0  0  0  0  0  0  0
   -3.3678    6.0867   -0.1291 H   0  0  0  0  0  0  0  0  0  0  0  0
   -3.3663    5.2844    1.4389 H   0  0  0  0  0  0  0  0  0  0  0  0
   -1.9272    6.1668    0.8993 H   0  0  0  0  0  0  0  0  0  0  0  0
   -1.6871    4.5414   -1.0558 H   0  0  0  0  0  0  0  0  0  0  0  0
   -3.8115    1.9885    1.3438 H   0  0  0  0  0  0  0  0  0  0  0  0
   -2.2026    1.8686    2.0908 H   0  0  0  0  0  0  0  0  0  0  0  0
   -3.1337    3.3426    2.2539 H   0  0  0  0  0  0  0  0  0  0  0  0
   -1.1540    0.0036   -2.0121 H   0  0  0  0  0  0  0  0  0  0  0  0
   -0.5583   -1.0315    0.8058 H   0  0  0  0  0  0  0  0  0  0  0  0
   -1.3665   -4.8095   -2.7294 H   0  0  0  0  0  0  0  0  0  0  0  0
    0.7104   -5.9697   -2.0798 H   0  0  0  0  0  0  0  0  0  0  0  0
    4.3991   -4.8205    0.7601 H   0  0  0  0  0  0  0  0  0  0  0  0
    2.8614   -5.9978   -0.7685 H   0  0  0  0  0  0  0  0  0  0  0  0
   -4.0686   -2.6095   -0.1789 H   0  0  0  0  0  0  0  0  0  0  0  0
   -2.5860   -2.3571    0.7128 H   0  0  0  0  0  0  0  0  0  0  0  0
   -3.7654   -1.0396    0.5920 H   0  0  0  0  0  0  0  0  0  0  0  0
   -4.4939   -1.5020   -2.3840 H   0  0  0  0  0  0  0  0  0  0  0  0
   -3.3071   -0.4295   -3.1018 H   0  0  0  0  0  0  0  0  0  0  0  0
   -4.2096    0.0959   -1.6633 H   0  0  0  0  0  0  0  0  0  0  0  0
    2.1245    2.2376   -0.6537 H   0  0  0  0  0  0  0  0  0  0  0  0
    3.1085    0.7818   -0.3886 H   0  0  0  0  0  0  0  0  0  0  0  0
    2.3631    2.7305    1.8580 H   0  0  0  0  0  0  0  0  0  0  0  0
    4.6635    3.6304    1.6383 H   0  0  0  0  0  0  0  0  0  0  0  0
    4.9464    2.6148    0.2132 H   0  0  0  0  0  0  0  0  0  0  0  0
    3.7339    3.9069    0.1593 H   0  0  0  0  0  0  0  0  0  0  0  0
    4.4920    0.5273    1.7013 H   0  0  0  0  0  0  0  0  0  0  0  0
    2.9802    0.4346    2.6200 H   0  0  0  0  0  0  0  0  0  0  0  0
    4.2155    1.6133    3.0725 H   0  0  0  0  0  0  0  0  0  0  0  0
  1  2  1  0
  2  3  2  3
  3  4  1  0
  3  5  1  0
  5  6  2  0
  5  7  1  0
  7  8  1  0
  8  9  1  0
  9 10  1  0
 10 11  2  0
 11 12  1  0
 12 13  2  0
 13 14  1  0
 14 15  2  0
 15 16  1  0
 16 17  1  0
 17 18  2  0
 17 19  1  0
 19 20  2  0
 11 21  1  0
 21 22  1  0
 22 23  1  0
 22 24  1  0
  9 25  1  0
 25 26  1  0
 26 27  2  0
 26 28  1  0
 28 29  1  0
 29 30  1  0
 29 31  1  0
 22  8  1  0
 15 10  1  0
 20 14  1  0
  1 32  1  0
  1 33  1  0
  1 34  1  0
  2 35  1  0
  4 36  1  0
  4 37  1  0
  4 38  1  0
  8 39  1  0
  9 40  1  0
 12 41  1  0
 13 42  1  0
 19 43  1  0
 20 44  1  0
 23 45  1  0
 23 46  1  0
 23 47  1  0
 24 48  1  0
 24 49  1  0
 24 50  1  0
 28 51  1  0
 28 52  1  0
 29 53  1  0
 30 54  1  0
 30 55  1  0
 30 56  1  0
 31 57  1  0
 31 58  1  0
 31 59  1  0
M  END
>  <Name>  (300) 
Qianhucoumarin H

>  <PubChem ID>  (300) 
13592771

>  <CDB ID>  (300) 
CDB0300

>  <Smiles>  (300) 
CC=C(C)C(=O)OC1C(C2=C(C=CC3=C2OC(=O)C=C3)OC1(C)C)OC(=O)CC(C)C

>  <Chemical class>  (300) 
7-Oxygenated Coumarins

>  <Natural source>  (300) 
Peucedanum praeruptorum

>  <Molecular Formula>  (300) 
C24H28O7

>  <InChI-Key>  (300) 
UFUVJROSOIXJGR-UHFFFAOYSA-N

>  <Total Molweight>  (300) 
428.479

>  <cLogP>  (300) 
4.4691

>  <cLogS>  (300) 
-4.503

>  <H-Acceptors>  (300) 
7

>  <H-Donors>  (300) 
0

>  <Rotatable Bonds>  (300) 
7

>  <Polar Surface Area>  (300) 
88.13

$$$$
CDB0301
     RDKit          3D

 33 35  0  0  0  0  0  0  0  0999 V2000
    2.7840    0.2941   -1.1903 C   0  0  0  0  0  0  0  0  0  0  0  0
    2.3912   -0.4101    0.1194 C   0  0  0  0  0  0  0  0  0  0  0  0
    1.7968    0.5396    1.1738 C   0  0  0  0  0  0  0  0  0  0  0  0
    0.4620    1.1168    0.6867 C   0  0  0  0  0  0  0  0  0  0  0  0
   -0.4118    0.0410    0.1052 C   0  0  0  0  0  0  0  0  0  0  0  0
    0.1524   -1.1772   -0.2893 C   0  0  0  0  0  0  0  0  0  0  0  0
    1.4811   -1.4866   -0.1833 O   0  0  0  0  0  0  0  0  0  0  0  0
   -0.6445   -2.1921   -0.8293 C   0  0  0  0  0  0  0  0  0  0  0  0
   -2.0134   -1.9974   -1.0193 C   0  0  0  0  0  0  0  0  0  0  0  0
   -2.5918   -0.7786   -0.6727 C   0  0  0  0  0  0  0  0  0  0  0  0
   -1.7856    0.2215   -0.1224 C   0  0  0  0  0  0  0  0  0  0  0  0
   -2.3560    1.4714    0.2176 O   0  0  0  0  0  0  0  0  0  0  0  0
   -3.7064    1.7405    0.0322 C   0  0  0  0  0  0  0  0  0  0  0  0
   -4.2001    2.8207    0.3306 O   0  0  0  0  0  0  0  0  0  0  0  0
   -4.5256    0.6613   -0.5395 C   0  0  0  0  0  0  0  0  0  0  0  0
   -4.0098   -0.5251   -0.8731 C   0  0  0  0  0  0  0  0  0  0  0  0
   -0.1289    1.7797    1.8136 O   0  0  0  0  0  0  0  0  0  0  0  0
    2.6914    1.6124    1.4997 O   0  0  0  0  0  0  0  0  0  0  0  0
    3.6517   -1.0808    0.6912 C   0  0  0  0  0  0  0  0  0  0  0  0
    3.2134   -0.4238   -1.8992 H   0  0  0  0  0  0  0  0  0  0  0  0
    1.9169    0.7300   -1.6968 H   0  0  0  0  0  0  0  0  0  0  0  0
    3.5178    1.0884   -1.0199 H   0  0  0  0  0  0  0  0  0  0  0  0
    1.6219   -0.0158    2.1060 H   0  0  0  0  0  0  0  0  0  0  0  0
    0.6371    1.8908   -0.0700 H   0  0  0  0  0  0  0  0  0  0  0  0
   -0.1894   -3.1387   -1.1137 H   0  0  0  0  0  0  0  0  0  0  0  0
   -2.6090   -2.8003   -1.4465 H   0  0  0  0  0  0  0  0  0  0  0  0
   -5.5765    0.8864   -0.6746 H   0  0  0  0  0  0  0  0  0  0  0  0
   -4.6327   -1.3073   -1.2936 H   0  0  0  0  0  0  0  0  0  0  0  0
   -1.0260    2.0512    1.5456 H   0  0  0  0  0  0  0  0  0  0  0  0
    2.1805    2.1917    2.1003 H   0  0  0  0  0  0  0  0  0  0  0  0
    4.4370   -0.3530    0.9195 H   0  0  0  0  0  0  0  0  0  0  0  0
    4.0572   -1.8156   -0.0144 H   0  0  0  0  0  0  0  0  0  0  0  0
    3.4150   -1.6352    1.6068 H   0  0  0  0  0  0  0  0  0  0  0  0
  1  2  1  0
  2  3  1  0
  3  4  1  0
  4  5  1  0
  5  6  2  0
  6  7  1  0
  6  8  1  0
  8  9  2  0
  9 10  1  0
 10 11  2  0
 11 12  1  0
 12 13  1  0
 13 14  2  0
 13 15  1  0
 15 16  2  0
  4 17  1  0
  3 18  1  0
  2 19  1  0
  7  2  1  0
 11  5  1  0
 16 10  1  0
  1 20  1  0
  1 21  1  0
  1 22  1  0
  3 23  1  0
  4 24  1  0
  8 25  1  0
  9 26  1  0
 15 27  1  0
 16 28  1  0
 17 29  1  0
 18 30  1  0
 19 31  1  0
 19 32  1  0
 19 33  1  0
M  END
>  <Name>  (301) 
(-)-Cis-Khellactone

>  <PubChem ID>  (301) 
11097348

>  <CDB ID>  (301) 
CDB0301

>  <Smiles>  (301) 
CC1(C(C(C2=C(O1)C=CC3=C2OC(=O)C=C3)O)O)C

>  <Chemical class>  (301) 
7-Oxygenated Coumarins

>  <Natural source>  (301) 
Peucedanum japonicum

>  <Molecular Formula>  (301) 
C14H14O5

>  <InChI-Key>  (301) 
HKXQUNNSKMWIKJ-UHFFFAOYSA-N

>  <Total Molweight>  (301) 
262.26

>  <cLogP>  (301) 
1.1098

>  <cLogS>  (301) 
-2.547

>  <H-Acceptors>  (301) 
5

>  <H-Donors>  (301) 
2

>  <Rotatable Bonds>  (301) 
0

>  <Polar Surface Area>  (301) 
75.99

$$$$
CDB0302
     RDKit          3D

 38 40  0  0  0  0  0  0  0  0999 V2000
   -0.9933    3.8618    0.3066 C   0  0  0  0  0  0  0  0  0  0  0  0
   -0.8945    2.5834    1.0793 C   0  0  0  0  0  0  0  0  0  0  0  0
   -1.1331    2.4707    2.2732 O   0  0  0  0  0  0  0  0  0  0  0  0
   -0.5260    1.5658    0.2564 O   0  0  0  0  0  0  0  0  0  0  0  0
   -0.3036    0.3061    0.9166 C   0  0  0  0  0  0  0  0  0  0  0  0
   -1.6317   -0.4157    1.2156 C   0  0  0  0  0  0  0  0  0  0  0  0
   -2.1522   -1.1915   -0.0204 C   0  0  0  0  0  0  0  0  0  0  0  0
   -1.1720   -2.1011   -0.5544 O   0  0  0  0  0  0  0  0  0  0  0  0
    0.1150   -1.6514   -0.6277 C   0  0  0  0  0  0  0  0  0  0  0  0
    0.5912   -0.5166    0.0283 C   0  0  0  0  0  0  0  0  0  0  0  0
    1.9398   -0.1702   -0.1582 C   0  0  0  0  0  0  0  0  0  0  0  0
    2.8024   -0.9280   -0.9531 C   0  0  0  0  0  0  0  0  0  0  0  0
    2.3103   -2.0698   -1.5814 C   0  0  0  0  0  0  0  0  0  0  0  0
    0.9708   -2.4284   -1.4156 C   0  0  0  0  0  0  0  0  0  0  0  0
    4.1874   -0.5108   -1.1015 C   0  0  0  0  0  0  0  0  0  0  0  0
    4.6151    0.5957   -0.4867 C   0  0  0  0  0  0  0  0  0  0  0  0
    3.7311    1.4238    0.3494 C   0  0  0  0  0  0  0  0  0  0  0  0
    4.1468    2.4433    0.8869 O   0  0  0  0  0  0  0  0  0  0  0  0
    2.4205    0.9911    0.4920 O   0  0  0  0  0  0  0  0  0  0  0  0
   -2.6149   -0.2549   -1.1513 C   0  0  0  0  0  0  0  0  0  0  0  0
   -3.3495   -2.0731    0.3793 C   0  0  0  0  0  0  0  0  0  0  0  0
   -1.4487   -1.3090    2.3311 O   0  0  0  0  0  0  0  0  0  0  0  0
   -1.2411    4.6796    0.9893 H   0  0  0  0  0  0  0  0  0  0  0  0
   -0.0331    4.0846   -0.1656 H   0  0  0  0  0  0  0  0  0  0  0  0
   -1.7824    3.7796   -0.4449 H   0  0  0  0  0  0  0  0  0  0  0  0
    0.2374    0.4705    1.8595 H   0  0  0  0  0  0  0  0  0  0  0  0
   -2.4020    0.2998    1.5264 H   0  0  0  0  0  0  0  0  0  0  0  0
    2.9519   -2.6891   -2.2029 H   0  0  0  0  0  0  0  0  0  0  0  0
    0.5850   -3.3186   -1.9077 H   0  0  0  0  0  0  0  0  0  0  0  0
    4.8565   -1.1060   -1.7132 H   0  0  0  0  0  0  0  0  0  0  0  0
    5.6384    0.9395   -0.5752 H   0  0  0  0  0  0  0  0  0  0  0  0
   -3.3699    0.4553   -0.7984 H   0  0  0  0  0  0  0  0  0  0  0  0
   -3.0456   -0.8319   -1.9784 H   0  0  0  0  0  0  0  0  0  0  0  0
   -1.7858    0.3089   -1.5891 H   0  0  0  0  0  0  0  0  0  0  0  0
   -3.0539   -2.8473    1.0962 H   0  0  0  0  0  0  0  0  0  0  0  0
   -4.1582   -1.4791    0.8176 H   0  0  0  0  0  0  0  0  0  0  0  0
   -3.7474   -2.6089   -0.4908 H   0  0  0  0  0  0  0  0  0  0  0  0
   -1.2605   -0.7581    3.1128 H   0  0  0  0  0  0  0  0  0  0  0  0
  1  2  1  0
  2  3  2  0
  2  4  1  0
  4  5  1  0
  5  6  1  0
  6  7  1  0
  7  8  1  0
  8  9  1  0
  9 10  2  0
 10 11  1  0
 11 12  2  0
 12 13  1  0
 13 14  2  0
 12 15  1  0
 15 16  2  0
 16 17  1  0
 17 18  2  0
 17 19  1  0
  7 20  1  0
  7 21  1  0
  6 22  1  0
 10  5  1  0
 14  9  1  0
 19 11  1  0
  1 23  1  0
  1 24  1  0
  1 25  1  0
  5 26  1  0
  6 27  1  0
 13 28  1  0
 14 29  1  0
 15 30  1  0
 16 31  1  0
 20 32  1  0
 20 33  1  0
 20 34  1  0
 21 35  1  0
 21 36  1  0
 21 37  1  0
 22 38  1  0
M  END
>  <Name>  (302) 
Qianhucoumarin C

>  <PubChem ID>  (302) 
196741

>  <CDB ID>  (302) 
CDB0302

>  <Smiles>  (302) 
CC(=O)OC1C(C(OC2=C1C3=C(C=C2)C=CC(=O)O3)(C)C)O

>  <Chemical class>  (302) 
7-Oxygenated Coumarins

>  <Natural source>  (302) 
Peucedanum praeruptorum

>  <Molecular Formula>  (302) 
C16H16O6

>  <InChI-Key>  (302) 
IPUBQCBQSUVXEV-UHFFFAOYSA-N

>  <Total Molweight>  (302) 
304.297

>  <cLogP>  (302) 
1.5944

>  <cLogS>  (302) 
-2.957

>  <H-Acceptors>  (302) 
6

>  <H-Donors>  (302) 
1

>  <Rotatable Bonds>  (302) 
2

>  <Polar Surface Area>  (302) 
82.06

$$$$
CDB0303
     RDKit          3D

 45 47  0  0  0  0  0  0  0  0999 V2000
    5.3893   -2.1223   -0.4738 C   0  0  0  0  0  0  0  0  0  0  0  0
    4.3233   -1.1729   -0.0314 C   0  0  0  0  0  0  0  0  0  0  0  0
    2.9921   -1.2783   -0.2200 C   0  0  0  0  0  0  0  0  0  0  0  0
    2.2853   -2.4166   -0.8917 C   0  0  0  0  0  0  0  0  0  0  0  0
    2.1507   -0.1690    0.3316 C   0  0  0  0  0  0  0  0  0  0  0  0
    2.5362    0.6381    1.1632 O   0  0  0  0  0  0  0  0  0  0  0  0
    0.9191   -0.2093   -0.2360 O   0  0  0  0  0  0  0  0  0  0  0  0
   -0.0084    0.8145    0.1863 C   0  0  0  0  0  0  0  0  0  0  0  0
   -0.0557    1.8705   -0.9342 C   0  0  0  0  0  0  0  0  0  0  0  0
   -1.3070    2.7599   -0.7865 C   0  0  0  0  0  0  0  0  0  0  0  0
   -2.5098    1.9714   -0.8369 O   0  0  0  0  0  0  0  0  0  0  0  0
   -2.5136    0.8045   -0.1244 C   0  0  0  0  0  0  0  0  0  0  0  0
   -1.3689    0.1945    0.3970 C   0  0  0  0  0  0  0  0  0  0  0  0
   -1.5474   -0.9758    1.1554 C   0  0  0  0  0  0  0  0  0  0  0  0
   -2.8046   -1.5554    1.3507 C   0  0  0  0  0  0  0  0  0  0  0  0
   -3.9242   -0.9486    0.7862 C   0  0  0  0  0  0  0  0  0  0  0  0
   -3.7761    0.2290    0.0527 C   0  0  0  0  0  0  0  0  0  0  0  0
   -2.9175   -2.7742    2.1362 C   0  0  0  0  0  0  0  0  0  0  0  0
   -1.8201   -3.3344    2.6525 C   0  0  0  0  0  0  0  0  0  0  0  0
   -0.4791   -2.7606    2.4594 C   0  0  0  0  0  0  0  0  0  0  0  0
    0.5129   -3.3164    2.9152 O   0  0  0  0  0  0  0  0  0  0  0  0
   -0.4075   -1.5769    1.7400 O   0  0  0  0  0  0  0  0  0  0  0  0
   -1.4019    3.7195   -1.9861 C   0  0  0  0  0  0  0  0  0  0  0  0
   -1.3097    3.6115    0.4950 C   0  0  0  0  0  0  0  0  0  0  0  0
    1.1453    2.6514   -0.9289 O   0  0  0  0  0  0  0  0  0  0  0  0
    6.1517   -1.5766   -1.0391 H   0  0  0  0  0  0  0  0  0  0  0  0
    5.0221   -2.9260   -1.1148 H   0  0  0  0  0  0  0  0  0  0  0  0
    5.8713   -2.5717    0.3997 H   0  0  0  0  0  0  0  0  0  0  0  0
    4.7083   -0.3010    0.5004 H   0  0  0  0  0  0  0  0  0  0  0  0
    2.9333   -3.2781   -1.0685 H   0  0  0  0  0  0  0  0  0  0  0  0
    1.8824   -2.0989   -1.8590 H   0  0  0  0  0  0  0  0  0  0  0  0
    1.4578   -2.7764   -0.2706 H   0  0  0  0  0  0  0  0  0  0  0  0
    0.3065    1.2714    1.1327 H   0  0  0  0  0  0  0  0  0  0  0  0
   -0.0899    1.3424   -1.8981 H   0  0  0  0  0  0  0  0  0  0  0  0
   -4.9169   -1.3723    0.9154 H   0  0  0  0  0  0  0  0  0  0  0  0
   -4.6522    0.7116   -0.3751 H   0  0  0  0  0  0  0  0  0  0  0  0
   -3.8960   -3.2156    2.2911 H   0  0  0  0  0  0  0  0  0  0  0  0
   -1.8635   -4.2439    3.2390 H   0  0  0  0  0  0  0  0  0  0  0  0
   -0.5652    4.4245   -2.0189 H   0  0  0  0  0  0  0  0  0  0  0  0
   -1.4231    3.1609   -2.9290 H   0  0  0  0  0  0  0  0  0  0  0  0
   -2.3341    4.2958   -1.9512 H   0  0  0  0  0  0  0  0  0  0  0  0
   -1.3203    2.9944    1.3990 H   0  0  0  0  0  0  0  0  0  0  0  0
   -2.2147    4.2286    0.5445 H   0  0  0  0  0  0  0  0  0  0  0  0
   -0.4396    4.2741    0.5430 H   0  0  0  0  0  0  0  0  0  0  0  0
    1.2793    3.0023   -1.8258 H   0  0  0  0  0  0  0  0  0  0  0  0
  1  2  1  0
  2  3  2  3
  3  4  1  0
  3  5  1  0
  5  6  2  0
  5  7  1  0
  7  8  1  0
  8  9  1  0
  9 10  1  0
 10 11  1  0
 11 12  1  0
 12 13  2  0
 13 14  1  0
 14 15  2  0
 15 16  1  0
 16 17  2  0
 15 18  1  0
 18 19  2  0
 19 20  1  0
 20 21  2  0
 20 22  1  0
 10 23  1  0
 10 24  1  0
  9 25  1  0
 13  8  1  0
 17 12  1  0
 22 14  1  0
  1 26  1  0
  1 27  1  0
  1 28  1  0
  2 29  1  0
  4 30  1  0
  4 31  1  0
  4 32  1  0
  8 33  1  0
  9 34  1  0
 16 35  1  0
 17 36  1  0
 18 37  1  0
 19 38  1  0
 23 39  1  0
 23 40  1  0
 23 41  1  0
 24 42  1  0
 24 43  1  0
 24 44  1  0
 25 45  1  0
M  END
>  <Name>  (303) 
D-Laserpitin

>  <PubChem ID>  (303) 
51396729

>  <CDB ID>  (303) 
CDB0303

>  <Smiles>  (303) 
CC=C(C)C(=O)OC1C(C(OC2=C1C3=C(C=C2)C=CC(=O)O3)(C)C)O

>  <Chemical class>  (303) 
7-Oxygenated Coumarins

>  <Natural source>  (303) 
Peucedanum zhongdianensis

>  <Molecular Formula>  (303) 
C19H20O6

>  <InChI-Key>  (303) 
QPLSCFLMIOADPA-UHFFFAOYSA-N

>  <Total Molweight>  (303) 
344.362

>  <cLogP>  (303) 
2.8574

>  <cLogS>  (303) 
-3.393

>  <H-Acceptors>  (303) 
6

>  <H-Donors>  (303) 
1

>  <Rotatable Bonds>  (303) 
3

>  <Polar Surface Area>  (303) 
82.06

$$$$
CDB0304
     RDKit          3D

 38 40  0  0  0  0  0  0  0  0999 V2000
    4.5472    1.5452   -0.8510 C   0  0  0  0  0  0  0  0  0  0  0  0
    3.2768    0.7914   -1.0960 C   0  0  0  0  0  0  0  0  0  0  0  0
    2.8295    0.5225   -2.2002 O   0  0  0  0  0  0  0  0  0  0  0  0
    2.6902    0.4652    0.0873 O   0  0  0  0  0  0  0  0  0  0  0  0
    1.4705   -0.3078   -0.0106 C   0  0  0  0  0  0  0  0  0  0  0  0
    0.2714    0.6009   -0.3222 C   0  0  0  0  0  0  0  0  0  0  0  0
   -1.0197   -0.1314   -0.1094 C   0  0  0  0  0  0  0  0  0  0  0  0
   -1.0600   -1.3115    0.6382 C   0  0  0  0  0  0  0  0  0  0  0  0
   -2.2656   -1.9964    0.8199 C   0  0  0  0  0  0  0  0  0  0  0  0
   -3.4537   -1.5023    0.2771 C   0  0  0  0  0  0  0  0  0  0  0  0
   -3.4386   -0.3199   -0.4609 C   0  0  0  0  0  0  0  0  0  0  0  0
   -2.2252    0.3464   -0.6469 C   0  0  0  0  0  0  0  0  0  0  0  0
   -2.1868    1.5381   -1.4088 O   0  0  0  0  0  0  0  0  0  0  0  0
   -3.3296    2.0901   -1.9683 C   0  0  0  0  0  0  0  0  0  0  0  0
   -3.3082    3.1230   -2.6277 O   0  0  0  0  0  0  0  0  0  0  0  0
   -4.5923    1.3672   -1.7438 C   0  0  0  0  0  0  0  0  0  0  0  0
   -4.6524    0.2333   -1.0397 C   0  0  0  0  0  0  0  0  0  0  0  0
    0.0330   -1.8988    1.2151 O   0  0  0  0  0  0  0  0  0  0  0  0
    1.2353   -1.1074    1.2930 C   0  0  0  0  0  0  0  0  0  0  0  0
    1.1847   -0.2539    2.5714 C   0  0  0  0  0  0  0  0  0  0  0  0
    2.3812   -2.1238    1.4633 C   0  0  0  0  0  0  0  0  0  0  0  0
    0.2713    1.7607    0.5147 O   0  0  0  0  0  0  0  0  0  0  0  0
    5.2318    0.9347   -0.2570 H   0  0  0  0  0  0  0  0  0  0  0  0
    5.0252    1.7706   -1.8086 H   0  0  0  0  0  0  0  0  0  0  0  0
    4.3266    2.4854   -0.3394 H   0  0  0  0  0  0  0  0  0  0  0  0
    1.5612   -1.0427   -0.8253 H   0  0  0  0  0  0  0  0  0  0  0  0
    0.3427    0.9500   -1.3586 H   0  0  0  0  0  0  0  0  0  0  0  0
   -2.2785   -2.9184    1.3968 H   0  0  0  0  0  0  0  0  0  0  0  0
   -4.3789   -2.0490    0.4398 H   0  0  0  0  0  0  0  0  0  0  0  0
   -5.4742    1.8116   -2.1882 H   0  0  0  0  0  0  0  0  0  0  0  0
   -5.5941   -0.2824   -0.8882 H   0  0  0  0  0  0  0  0  0  0  0  0
    0.2977    0.3854    2.6060 H   0  0  0  0  0  0  0  0  0  0  0  0
    1.1127   -0.8953    3.4582 H   0  0  0  0  0  0  0  0  0  0  0  0
    2.0745    0.3744    2.6782 H   0  0  0  0  0  0  0  0  0  0  0  0
    2.4391   -2.7931    0.5970 H   0  0  0  0  0  0  0  0  0  0  0  0
    2.2068   -2.7677    2.3335 H   0  0  0  0  0  0  0  0  0  0  0  0
    3.3516   -1.6324    1.5877 H   0  0  0  0  0  0  0  0  0  0  0  0
    1.0971    2.2380    0.3278 H   0  0  0  0  0  0  0  0  0  0  0  0
  1  2  1  0
  2  3  2  0
  2  4  1  0
  4  5  1  0
  5  6  1  0
  6  7  1  0
  7  8  2  0
  8  9  1  0
  9 10  2  0
 10 11  1  0
 11 12  2  0
 12 13  1  0
 13 14  1  0
 14 15  2  0
 14 16  1  0
 16 17  2  0
  8 18  1  0
 18 19  1  0
 19 20  1  0
 19 21  1  0
  6 22  1  0
 19  5  1  0
 12  7  1  0
 17 11  1  0
  1 23  1  0
  1 24  1  0
  1 25  1  0
  5 26  1  0
  6 27  1  0
  9 28  1  0
 10 29  1  0
 16 30  1  0
 17 31  1  0
 20 32  1  0
 20 33  1  0
 20 34  1  0
 21 35  1  0
 21 36  1  0
 21 37  1  0
 22 38  1  0
M  END
>  <Name>  (304) 
Qianhucoumarin B

>  <PubChem ID>  (304) 
197634

>  <CDB ID>  (304) 
CDB0304

>  <Smiles>  (304) 
CC(=O)OC1C(C2=C(C=CC3=C2OC(=O)C=C3)OC1(C)C)O

>  <Chemical class>  (304) 
7-Oxygenated Coumarins

>  <Natural source>  (304) 
Peucedanum praeruptorum

>  <Molecular Formula>  (304) 
C16H16O6

>  <InChI-Key>  (304) 
WGBFEDHNTNVZGG-UHFFFAOYSA-N

>  <Total Molweight>  (304) 
304.297

>  <cLogP>  (304) 
1.5944

>  <cLogS>  (304) 
-2.957

>  <H-Acceptors>  (304) 
6

>  <H-Donors>  (304) 
1

>  <Rotatable Bonds>  (304) 
2

>  <Polar Surface Area>  (304) 
82.06

$$$$
CDB0305
     RDKit          3D

 50 52  0  0  0  0  0  0  0  0999 V2000
    5.6244    0.1393   -1.3599 C   0  0  0  0  0  0  0  0  0  0  0  0
    4.4219    0.3301   -0.4930 C   0  0  0  0  0  0  0  0  0  0  0  0
    3.1487   -0.0392   -0.7419 C   0  0  0  0  0  0  0  0  0  0  0  0
    2.6590   -0.7420   -1.9721 C   0  0  0  0  0  0  0  0  0  0  0  0
    2.1429    0.2853    0.3185 C   0  0  0  0  0  0  0  0  0  0  0  0
    2.4054    0.7932    1.3996 O   0  0  0  0  0  0  0  0  0  0  0  0
    0.8965   -0.0709   -0.0880 O   0  0  0  0  0  0  0  0  0  0  0  0
   -0.1445    0.1918    0.8697 C   0  0  0  0  0  0  0  0  0  0  0  0
   -0.6265    1.6466    0.7186 C   0  0  0  0  0  0  0  0  0  0  0  0
   -1.8857    1.8736    1.5824 C   0  0  0  0  0  0  0  0  0  0  0  0
   -2.9512    0.9678    1.2332 O   0  0  0  0  0  0  0  0  0  0  0  0
   -2.6126   -0.3121    0.8882 C   0  0  0  0  0  0  0  0  0  0  0  0
   -1.3024   -0.7642    0.6926 C   0  0  0  0  0  0  0  0  0  0  0  0
   -1.1227   -2.1287    0.4077 C   0  0  0  0  0  0  0  0  0  0  0  0
   -2.1996   -3.0077    0.2563 C   0  0  0  0  0  0  0  0  0  0  0  0
   -3.4962   -2.5229    0.4118 C   0  0  0  0  0  0  0  0  0  0  0  0
   -3.6984   -1.1801    0.7325 C   0  0  0  0  0  0  0  0  0  0  0  0
   -1.9455   -4.4057   -0.0551 C   0  0  0  0  0  0  0  0  0  0  0  0
   -0.6887   -4.8381   -0.1896 C   0  0  0  0  0  0  0  0  0  0  0  0
    0.4702   -3.9462   -0.0291 C   0  0  0  0  0  0  0  0  0  0  0  0
    1.6121   -4.3664   -0.1726 O   0  0  0  0  0  0  0  0  0  0  0  0
    0.1972   -2.6243    0.2895 O   0  0  0  0  0  0  0  0  0  0  0  0
   -1.6040    1.7363    3.0883 C   0  0  0  0  0  0  0  0  0  0  0  0
   -2.4484    3.2840    1.3308 C   0  0  0  0  0  0  0  0  0  0  0  0
   -0.9755    1.8983   -0.6751 O   0  0  0  0  0  0  0  0  0  0  0  0
   -0.0439    2.5031   -1.4548 C   0  0  0  0  0  0  0  0  0  0  0  0
    1.0528    2.8936   -1.0849 O   0  0  0  0  0  0  0  0  0  0  0  0
   -0.5561    2.6271   -2.8565 C   0  0  0  0  0  0  0  0  0  0  0  0
    6.3669   -0.4655   -0.8298 H   0  0  0  0  0  0  0  0  0  0  0  0
    6.0749    1.1123   -1.5806 H   0  0  0  0  0  0  0  0  0  0  0  0
    5.4112   -0.3510   -2.3109 H   0  0  0  0  0  0  0  0  0  0  0  0
    4.6447    0.8382    0.4468 H   0  0  0  0  0  0  0  0  0  0  0  0
    1.9202   -0.1260   -2.4960 H   0  0  0  0  0  0  0  0  0  0  0  0
    2.1929   -1.6968   -1.7076 H   0  0  0  0  0  0  0  0  0  0  0  0
    3.4524   -0.9659   -2.6880 H   0  0  0  0  0  0  0  0  0  0  0  0
    0.2321    0.0167    1.8860 H   0  0  0  0  0  0  0  0  0  0  0  0
    0.1617    2.3428    1.0300 H   0  0  0  0  0  0  0  0  0  0  0  0
   -4.3571   -3.1771    0.3000 H   0  0  0  0  0  0  0  0  0  0  0  0
   -4.7102   -0.8053    0.8716 H   0  0  0  0  0  0  0  0  0  0  0  0
   -2.7850   -5.0816   -0.1766 H   0  0  0  0  0  0  0  0  0  0  0  0
   -0.4606   -5.8706   -0.4238 H   0  0  0  0  0  0  0  0  0  0  0  0
   -2.5018    1.9708    3.6724 H   0  0  0  0  0  0  0  0  0  0  0  0
   -0.8008    2.4084    3.4072 H   0  0  0  0  0  0  0  0  0  0  0  0
   -1.3322    0.7132    3.3664 H   0  0  0  0  0  0  0  0  0  0  0  0
   -2.7836    3.4029    0.2944 H   0  0  0  0  0  0  0  0  0  0  0  0
   -1.7055    4.0581    1.5493 H   0  0  0  0  0  0  0  0  0  0  0  0
   -3.3322    3.4681    1.9531 H   0  0  0  0  0  0  0  0  0  0  0  0
    0.1981    3.1209   -3.4757 H   0  0  0  0  0  0  0  0  0  0  0  0
   -1.4660    3.2323   -2.8667 H   0  0  0  0  0  0  0  0  0  0  0  0
   -0.7491    1.6335   -3.2688 H   0  0  0  0  0  0  0  0  0  0  0  0
  1  2  1  0
  2  3  2  3
  3  4  1  0
  3  5  1  0
  5  6  2  0
  5  7  1  0
  7  8  1  0
  8  9  1  0
  9 10  1  0
 10 11  1  0
 11 12  1  0
 12 13  2  0
 13 14  1  0
 14 15  2  0
 15 16  1  0
 16 17  2  0
 15 18  1  0
 18 19  2  0
 19 20  1  0
 20 21  2  0
 20 22  1  0
 10 23  1  0
 10 24  1  0
  9 25  1  0
 25 26  1  0
 26 27  2  0
 26 28  1  0
 13  8  1  0
 17 12  1  0
 22 14  1  0
  1 29  1  0
  1 30  1  0
  1 31  1  0
  2 32  1  0
  4 33  1  0
  4 34  1  0
  4 35  1  0
  8 36  1  0
  9 37  1  0
 16 38  1  0
 17 39  1  0
 18 40  1  0
 19 41  1  0
 23 42  1  0
 23 43  1  0
 23 44  1  0
 24 45  1  0
 24 46  1  0
 24 47  1  0
 28 48  1  0
 28 49  1  0
 28 50  1  0
M  END
>  <Name>  (305) 
Qianhucoumarin I

>  <PubChem ID>  (305) 
1150979

>  <CDB ID>  (305) 
CDB0305

>  <Smiles>  (305) 
CC=C(C)C(=O)OC1C(C(OC2=C1C3=C(C=C2)C=CC(=O)O3)(C)C)OC(=O)C

>  <Chemical class>  (305) 
7-Oxygenated Coumarins

>  <Natural source>  (305) 
Peucedanum praeruptorum

>  <Molecular Formula>  (305) 
C21H22O7

>  <InChI-Key>  (305) 
LYUZYPKZQDYMEE-UHFFFAOYSA-N

>  <Total Molweight>  (305) 
386.399

>  <cLogP>  (305) 
3.342

>  <cLogS>  (305) 
-3.803

>  <H-Acceptors>  (305) 
7

>  <H-Donors>  (305) 
0

>  <Rotatable Bonds>  (305) 
5

>  <Polar Surface Area>  (305) 
88.13

$$$$
CDB0306
     RDKit          3D

 50 52  0  0  0  0  0  0  0  0999 V2000
    5.6669    2.6475   -0.7640 C   0  0  0  0  0  0  0  0  0  0  0  0
    4.5080    1.7278   -0.9761 C   0  0  0  0  0  0  0  0  0  0  0  0
    3.5693    1.3529   -0.0831 C   0  0  0  0  0  0  0  0  0  0  0  0
    3.4772    1.8098    1.3416 C   0  0  0  0  0  0  0  0  0  0  0  0
    2.5181    0.4089   -0.5791 C   0  0  0  0  0  0  0  0  0  0  0  0
    2.4019    0.0384   -1.7377 O   0  0  0  0  0  0  0  0  0  0  0  0
    1.7350   -0.0048    0.4525 O   0  0  0  0  0  0  0  0  0  0  0  0
    0.6703   -0.9080    0.0937 C   0  0  0  0  0  0  0  0  0  0  0  0
   -0.5901   -0.1462   -0.3531 C   0  0  0  0  0  0  0  0  0  0  0  0
   -1.7434   -1.1076   -0.4701 C   0  0  0  0  0  0  0  0  0  0  0  0
   -1.7100   -2.3532    0.1624 C   0  0  0  0  0  0  0  0  0  0  0  0
   -2.7805   -3.2435    0.0315 C   0  0  0  0  0  0  0  0  0  0  0  0
   -3.9104   -2.8953   -0.7119 C   0  0  0  0  0  0  0  0  0  0  0  0
   -3.9754   -1.6475   -1.3288 C   0  0  0  0  0  0  0  0  0  0  0  0
   -2.8956   -0.7717   -1.1987 C   0  0  0  0  0  0  0  0  0  0  0  0
   -2.9477    0.5049   -1.8056 O   0  0  0  0  0  0  0  0  0  0  0  0
   -4.0561    0.9327   -2.5230 C   0  0  0  0  0  0  0  0  0  0  0  0
   -4.1265    2.0491   -3.0226 O   0  0  0  0  0  0  0  0  0  0  0  0
   -5.1660   -0.0245   -2.6594 C   0  0  0  0  0  0  0  0  0  0  0  0
   -5.1368   -1.2383   -2.1018 C   0  0  0  0  0  0  0  0  0  0  0  0
   -0.6686   -2.8104    0.9215 O   0  0  0  0  0  0  0  0  0  0  0  0
    0.3635   -1.8658    1.2679 C   0  0  0  0  0  0  0  0  0  0  0  0
   -0.0268   -1.1709    2.5828 C   0  0  0  0  0  0  0  0  0  0  0  0
    1.6161   -2.7181    1.5526 C   0  0  0  0  0  0  0  0  0  0  0  0
   -0.9950    0.8472    0.6106 O   0  0  0  0  0  0  0  0  0  0  0  0
   -0.5300    2.1081    0.4194 C   0  0  0  0  0  0  0  0  0  0  0  0
    0.2402    2.4637   -0.4591 O   0  0  0  0  0  0  0  0  0  0  0  0
   -1.0867    3.0180    1.4707 C   0  0  0  0  0  0  0  0  0  0  0  0
    5.5574    3.5318   -1.3994 H   0  0  0  0  0  0  0  0  0  0  0  0
    6.5936    2.1384   -1.0479 H   0  0  0  0  0  0  0  0  0  0  0  0
    5.7806    2.9832    0.2681 H   0  0  0  0  0  0  0  0  0  0  0  0
    4.4494    1.3347   -1.9928 H   0  0  0  0  0  0  0  0  0  0  0  0
    4.2119    2.5759    1.5979 H   0  0  0  0  0  0  0  0  0  0  0  0
    2.4917    2.2431    1.5437 H   0  0  0  0  0  0  0  0  0  0  0  0
    3.6335    0.9670    2.0233 H   0  0  0  0  0  0  0  0  0  0  0  0
    0.9850   -1.5451   -0.7473 H   0  0  0  0  0  0  0  0  0  0  0  0
   -0.4013    0.3188   -1.3291 H   0  0  0  0  0  0  0  0  0  0  0  0
   -2.7344   -4.2151    0.5189 H   0  0  0  0  0  0  0  0  0  0  0  0
   -4.7302   -3.6045   -0.7943 H   0  0  0  0  0  0  0  0  0  0  0  0
   -6.0140    0.3178   -3.2398 H   0  0  0  0  0  0  0  0  0  0  0  0
   -5.9676   -1.9262   -2.2145 H   0  0  0  0  0  0  0  0  0  0  0  0
   -0.1038   -1.9031    3.3958 H   0  0  0  0  0  0  0  0  0  0  0  0
   -1.0143   -0.7041    2.5253 H   0  0  0  0  0  0  0  0  0  0  0  0
    0.7059   -0.4131    2.8775 H   0  0  0  0  0  0  0  0  0  0  0  0
    1.4095   -3.4730    2.3205 H   0  0  0  0  0  0  0  0  0  0  0  0
    1.9214   -3.2717    0.6570 H   0  0  0  0  0  0  0  0  0  0  0  0
    2.4610   -2.1081    1.8884 H   0  0  0  0  0  0  0  0  0  0  0  0
   -2.1788    3.0120    1.4260 H   0  0  0  0  0  0  0  0  0  0  0  0
   -0.7393    2.6995    2.4567 H   0  0  0  0  0  0  0  0  0  0  0  0
   -0.7379    4.0385    1.2887 H   0  0  0  0  0  0  0  0  0  0  0  0
  1  2  1  0
  2  3  2  3
  3  4  1  0
  3  5  1  0
  5  6  2  0
  5  7  1  0
  7  8  1  0
  8  9  1  0
  9 10  1  0
 10 11  2  0
 11 12  1  0
 12 13  2  0
 13 14  1  0
 14 15  2  0
 15 16  1  0
 16 17  1  0
 17 18  2  0
 17 19  1  0
 19 20  2  0
 11 21  1  0
 21 22  1  0
 22 23  1  0
 22 24  1  0
  9 25  1  0
 25 26  1  0
 26 27  2  0
 26 28  1  0
 22  8  1  0
 15 10  1  0
 20 14  1  0
  1 29  1  0
  1 30  1  0
  1 31  1  0
  2 32  1  0
  4 33  1  0
  4 34  1  0
  4 35  1  0
  8 36  1  0
  9 37  1  0
 12 38  1  0
 13 39  1  0
 19 40  1  0
 20 41  1  0
 23 42  1  0
 23 43  1  0
 23 44  1  0
 24 45  1  0
 24 46  1  0
 24 47  1  0
 28 48  1  0
 28 49  1  0
 28 50  1  0
M  END
>  <Name>  (306) 
(+ )-Praeruptorin A

>  <PubChem ID>  (306) 
38347601

>  <CDB ID>  (306) 
CDB0306

>  <Smiles>  (306) 
CC=C(C)C(=O)OC1C(C2=C(C=CC3=C2OC(=O)C=C3)OC1(C)C)OC(=O)C

>  <Chemical class>  (306) 
7-Oxygenated Coumarins

>  <Natural source>  (306) 
Peucedanum praeruptorum

>  <Molecular Formula>  (306) 
C21H22O7

>  <InChI-Key>  (306) 
XGPBRZDOJDLKOT-UHFFFAOYSA-N

>  <Total Molweight>  (306) 
386.399

>  <cLogP>  (306) 
3.342

>  <cLogS>  (306) 
-3.803

>  <H-Acceptors>  (306) 
7

>  <H-Donors>  (306) 
0

>  <Rotatable Bonds>  (306) 
5

>  <Polar Surface Area>  (306) 
88.13

$$$$
CDB0307
     RDKit          3D

 55 57  0  0  0  0  0  0  0  0999 V2000
   -2.2000   -4.6603   -1.6839 C   0  0  0  0  0  0  0  0  0  0  0  0
   -2.0946   -3.1792   -1.5045 C   0  0  0  0  0  0  0  0  0  0  0  0
   -2.7533   -2.4074   -0.6151 C   0  0  0  0  0  0  0  0  0  0  0  0
   -3.7324   -2.8944    0.4138 C   0  0  0  0  0  0  0  0  0  0  0  0
   -2.5431   -0.9250   -0.5700 C   0  0  0  0  0  0  0  0  0  0  0  0
   -3.2554   -0.1632    0.0675 O   0  0  0  0  0  0  0  0  0  0  0  0
   -1.4657   -0.5484   -1.3064 O   0  0  0  0  0  0  0  0  0  0  0  0
   -1.1236    0.8501   -1.2334 C   0  0  0  0  0  0  0  0  0  0  0  0
   -0.2455    1.1451   -0.0038 C   0  0  0  0  0  0  0  0  0  0  0  0
    0.3321    2.5313   -0.1091 C   0  0  0  0  0  0  0  0  0  0  0  0
    0.3669    3.2071   -1.3313 C   0  0  0  0  0  0  0  0  0  0  0  0
    0.8895    4.5017   -1.4110 C   0  0  0  0  0  0  0  0  0  0  0  0
    1.4079    5.1320   -0.2776 C   0  0  0  0  0  0  0  0  0  0  0  0
    1.4055    4.4662    0.9466 C   0  0  0  0  0  0  0  0  0  0  0  0
    0.8703    3.1783    1.0147 C   0  0  0  0  0  0  0  0  0  0  0  0
    0.8652    2.4822    2.2461 O   0  0  0  0  0  0  0  0  0  0  0  0
    1.3926    3.0348    3.4050 C   0  0  0  0  0  0  0  0  0  0  0  0
    1.4154    2.4319    4.4712 O   0  0  0  0  0  0  0  0  0  0  0  0
    1.9347    4.3993    3.2999 C   0  0  0  0  0  0  0  0  0  0  0  0
    1.9446    5.0791    2.1498 C   0  0  0  0  0  0  0  0  0  0  0  0
   -0.1023    2.6993   -2.5109 O   0  0  0  0  0  0  0  0  0  0  0  0
   -0.4295    1.2960   -2.5411 C   0  0  0  0  0  0  0  0  0  0  0  0
    0.8369    0.5022   -2.9032 C   0  0  0  0  0  0  0  0  0  0  0  0
   -1.4226    1.1346   -3.7089 C   0  0  0  0  0  0  0  0  0  0  0  0
    0.8755    0.2414    0.0758 O   0  0  0  0  0  0  0  0  0  0  0  0
    0.7106   -0.8538    0.8524 C   0  0  0  0  0  0  0  0  0  0  0  0
   -0.2845   -1.1659    1.4828 O   0  0  0  0  0  0  0  0  0  0  0  0
    1.9557   -1.6400    0.7940 C   0  0  0  0  0  0  0  0  0  0  0  0
    2.0453   -2.7810    1.4884 C   0  0  0  0  0  0  0  0  0  0  0  0
    3.4864   -3.7403    1.4404 S   0  0  0  0  0  0  0  0  0  0  0  0
    3.0577   -5.0276    2.6362 C   0  0  0  0  0  0  0  0  0  0  0  0
   -1.2442   -5.1314   -1.4344 H   0  0  0  0  0  0  0  0  0  0  0  0
   -2.4258   -4.8851   -2.7314 H   0  0  0  0  0  0  0  0  0  0  0  0
   -2.9785   -5.1246   -1.0763 H   0  0  0  0  0  0  0  0  0  0  0  0
   -1.3984   -2.7157   -2.2021 H   0  0  0  0  0  0  0  0  0  0  0  0
   -3.4603   -2.5198    1.4070 H   0  0  0  0  0  0  0  0  0  0  0  0
   -3.7723   -3.9828    0.4929 H   0  0  0  0  0  0  0  0  0  0  0  0
   -4.7410   -2.5406    0.1752 H   0  0  0  0  0  0  0  0  0  0  0  0
   -2.0369    1.4582   -1.1434 H   0  0  0  0  0  0  0  0  0  0  0  0
   -0.8633    1.0775    0.9008 H   0  0  0  0  0  0  0  0  0  0  0  0
    0.8981    5.0202   -2.3674 H   0  0  0  0  0  0  0  0  0  0  0  0
    1.8129    6.1368   -0.3680 H   0  0  0  0  0  0  0  0  0  0  0  0
    2.3292    4.8206    4.2165 H   0  0  0  0  0  0  0  0  0  0  0  0
    2.3507    6.0834    2.0966 H   0  0  0  0  0  0  0  0  0  0  0  0
    1.2024    0.7945   -3.8951 H   0  0  0  0  0  0  0  0  0  0  0  0
    0.6537   -0.5768   -2.9140 H   0  0  0  0  0  0  0  0  0  0  0  0
    1.6652    0.7124   -2.2204 H   0  0  0  0  0  0  0  0  0  0  0  0
   -0.9968    1.5239   -4.6413 H   0  0  0  0  0  0  0  0  0  0  0  0
   -2.3349    1.7144   -3.5264 H   0  0  0  0  0  0  0  0  0  0  0  0
   -1.7026    0.0883   -3.8690 H   0  0  0  0  0  0  0  0  0  0  0  0
    2.7640   -1.2602    0.1817 H   0  0  0  0  0  0  0  0  0  0  0  0
    1.2096   -3.1232    2.0953 H   0  0  0  0  0  0  0  0  0  0  0  0
    3.8909   -5.7297    2.7253 H   0  0  0  0  0  0  0  0  0  0  0  0
    2.1723   -5.5779    2.3058 H   0  0  0  0  0  0  0  0  0  0  0  0
    2.8654   -4.5886    3.6192 H   0  0  0  0  0  0  0  0  0  0  0  0
  1  2  1  0
  2  3  2  3
  3  4  1  0
  3  5  1  0
  5  6  2  0
  5  7  1  0
  7  8  1  0
  8  9  1  0
  9 10  1  0
 10 11  2  0
 11 12  1  0
 12 13  2  0
 13 14  1  0
 14 15  2  0
 15 16  1  0
 16 17  1  0
 17 18  2  0
 17 19  1  0
 19 20  2  0
 11 21  1  0
 21 22  1  0
 22 23  1  0
 22 24  1  0
  9 25  1  0
 25 26  1  0
 26 27  2  0
 26 28  1  0
 28 29  2  3
 29 30  1  0
 30 31  1  0
 22  8  1  0
 15 10  1  0
 20 14  1  0
  1 32  1  0
  1 33  1  0
  1 34  1  0
  2 35  1  0
  4 36  1  0
  4 37  1  0
  4 38  1  0
  8 39  1  0
  9 40  1  0
 12 41  1  0
 13 42  1  0
 19 43  1  0
 20 44  1  0
 23 45  1  0
 23 46  1  0
 23 47  1  0
 24 48  1  0
 24 49  1  0
 24 50  1  0
 28 51  1  0
 29 52  1  0
 31 53  1  0
 31 54  1  0
 31 55  1  0
M  END
>  <Name>  (307) 
Floroselin

>  <PubChem ID>  (307) 
101316943

>  <CDB ID>  (307) 
CDB0307

>  <Smiles>  (307) 
CC=C(C)C(=O)OC1C(C2=C(C=CC3=C2OC(=O)C=C3)OC1(C)C)OC(=O)C=CSC

>  <Chemical class>  (307) 
7-Oxygenated Coumarins

>  <Natural source>  (307) 
Seseli sessiliflorum

>  <Molecular Formula>  (307) 
C23H24O7S

>  <InChI-Key>  (307) 
VZCQZASXHFXLSM-UHFFFAOYSA-N

>  <Total Molweight>  (307) 
444.503

>  <cLogP>  (307) 
3.6541

>  <cLogS>  (307) 
-4.394

>  <H-Acceptors>  (307) 
7

>  <H-Donors>  (307) 
0

>  <Rotatable Bonds>  (307) 
7

>  <Polar Surface Area>  (307) 
113.43

$$$$
CDB0308
     RDKit          3D

 57 59  0  0  0  0  0  0  0  0999 V2000
   -4.1400    3.3195    2.4807 C   0  0  0  0  0  0  0  0  0  0  0  0
   -3.5893    2.5102    1.3513 C   0  0  0  0  0  0  0  0  0  0  0  0
   -2.5075    1.7045    1.3546 C   0  0  0  0  0  0  0  0  0  0  0  0
   -1.6003    1.4509    2.5211 C   0  0  0  0  0  0  0  0  0  0  0  0
   -2.1921    1.0087    0.0670 C   0  0  0  0  0  0  0  0  0  0  0  0
   -2.8288    1.1321   -0.9699 O   0  0  0  0  0  0  0  0  0  0  0  0
   -1.1044    0.2099    0.2177 O   0  0  0  0  0  0  0  0  0  0  0  0
   -0.7222   -0.5167   -0.9633 C   0  0  0  0  0  0  0  0  0  0  0  0
    0.1773    0.3699   -1.8440 C   0  0  0  0  0  0  0  0  0  0  0  0
    0.7640   -0.4665   -3.0012 C   0  0  0  0  0  0  0  0  0  0  0  0
    1.5110   -1.6037   -2.5251 O   0  0  0  0  0  0  0  0  0  0  0  0
    1.0546   -2.2457   -1.4068 C   0  0  0  0  0  0  0  0  0  0  0  0
   -0.0017   -1.7971   -0.6055 C   0  0  0  0  0  0  0  0  0  0  0  0
   -0.3870   -2.6091    0.4749 C   0  0  0  0  0  0  0  0  0  0  0  0
    0.2850   -3.7924    0.7958 C   0  0  0  0  0  0  0  0  0  0  0  0
    1.3608   -4.1951    0.0078 C   0  0  0  0  0  0  0  0  0  0  0  0
    1.7380   -3.4250   -1.0927 C   0  0  0  0  0  0  0  0  0  0  0  0
   -0.1523   -4.5778    1.9394 C   0  0  0  0  0  0  0  0  0  0  0  0
   -1.1908   -4.1640    2.6707 C   0  0  0  0  0  0  0  0  0  0  0  0
   -1.9275   -2.9288    2.3609 C   0  0  0  0  0  0  0  0  0  0  0  0
   -2.8666   -2.5649    3.0585 O   0  0  0  0  0  0  0  0  0  0  0  0
   -1.5025   -2.2146    1.2508 O   0  0  0  0  0  0  0  0  0  0  0  0
    1.7708    0.3784   -3.8025 C   0  0  0  0  0  0  0  0  0  0  0  0
   -0.3157   -0.9692   -3.9744 C   0  0  0  0  0  0  0  0  0  0  0  0
    1.2835    0.8832   -1.0464 O   0  0  0  0  0  0  0  0  0  0  0  0
    1.1542    2.1243   -0.5259 C   0  0  0  0  0  0  0  0  0  0  0  0
    0.2202    2.8891   -0.7046 O   0  0  0  0  0  0  0  0  0  0  0  0
    2.3792    2.4959    0.2319 C   0  0  0  0  0  0  0  0  0  0  0  0
    3.0127    1.6698    1.0879 C   0  0  0  0  0  0  0  0  0  0  0  0
    2.6007    0.2934    1.5056 C   0  0  0  0  0  0  0  0  0  0  0  0
    2.8500    3.8960   -0.0284 C   0  0  0  0  0  0  0  0  0  0  0  0
   -4.1270    4.3807    2.2128 H   0  0  0  0  0  0  0  0  0  0  0  0
   -5.1791    3.0295    2.6662 H   0  0  0  0  0  0  0  0  0  0  0  0
   -3.5919    3.2035    3.4169 H   0  0  0  0  0  0  0  0  0  0  0  0
   -4.1625    2.6121    0.4283 H   0  0  0  0  0  0  0  0  0  0  0  0
   -1.8751    2.0156    3.4142 H   0  0  0  0  0  0  0  0  0  0  0  0
   -1.6159    0.3908    2.7950 H   0  0  0  0  0  0  0  0  0  0  0  0
   -0.5711    1.7325    2.2738 H   0  0  0  0  0  0  0  0  0  0  0  0
   -1.6192   -0.8240   -1.5164 H   0  0  0  0  0  0  0  0  0  0  0  0
   -0.3985    1.2090   -2.2534 H   0  0  0  0  0  0  0  0  0  0  0  0
    1.9070   -5.1087    0.2282 H   0  0  0  0  0  0  0  0  0  0  0  0
    2.5677   -3.7476   -1.7182 H   0  0  0  0  0  0  0  0  0  0  0  0
    0.3751   -5.4930    2.1855 H   0  0  0  0  0  0  0  0  0  0  0  0
   -1.5433   -4.7204    3.5305 H   0  0  0  0  0  0  0  0  0  0  0  0
    2.6326    0.6638   -3.1888 H   0  0  0  0  0  0  0  0  0  0  0  0
    1.3069    1.2875   -4.1990 H   0  0  0  0  0  0  0  0  0  0  0  0
    2.1799   -0.1953   -4.6426 H   0  0  0  0  0  0  0  0  0  0  0  0
   -0.9141   -0.1416   -4.3693 H   0  0  0  0  0  0  0  0  0  0  0  0
    0.1413   -1.4978   -4.8194 H   0  0  0  0  0  0  0  0  0  0  0  0
   -0.9896   -1.6930   -3.5057 H   0  0  0  0  0  0  0  0  0  0  0  0
    3.9165    2.0305    1.5769 H   0  0  0  0  0  0  0  0  0  0  0  0
    2.7921    0.1667    2.5764 H   0  0  0  0  0  0  0  0  0  0  0  0
    3.1835   -0.4580    0.9652 H   0  0  0  0  0  0  0  0  0  0  0  0
    1.5359    0.1044    1.3538 H   0  0  0  0  0  0  0  0  0  0  0  0
    3.7855    4.1188    0.4958 H   0  0  0  0  0  0  0  0  0  0  0  0
    2.1021    4.6227    0.3058 H   0  0  0  0  0  0  0  0  0  0  0  0
    3.0281    4.0463   -1.0985 H   0  0  0  0  0  0  0  0  0  0  0  0
  1  2  1  0
  2  3  2  3
  3  4  1  0
  3  5  1  0
  5  6  2  0
  5  7  1  0
  7  8  1  0
  8  9  1  0
  9 10  1  0
 10 11  1  0
 11 12  1  0
 12 13  2  0
 13 14  1  0
 14 15  2  0
 15 16  1  0
 16 17  2  0
 15 18  1  0
 18 19  2  0
 19 20  1  0
 20 21  2  0
 20 22  1  0
 10 23  1  0
 10 24  1  0
  9 25  1  0
 25 26  1  0
 26 27  2  0
 26 28  1  0
 28 29  2  3
 29 30  1  0
 28 31  1  0
 13  8  1  0
 17 12  1  0
 22 14  1  0
  1 32  1  0
  1 33  1  0
  1 34  1  0
  2 35  1  0
  4 36  1  0
  4 37  1  0
  4 38  1  0
  8 39  1  0
  9 40  1  0
 16 41  1  0
 17 42  1  0
 18 43  1  0
 19 44  1  0
 23 45  1  0
 23 46  1  0
 23 47  1  0
 24 48  1  0
 24 49  1  0
 24 50  1  0
 29 51  1  0
 30 52  1  0
 30 53  1  0
 30 54  1  0
 31 55  1  0
 31 56  1  0
 31 57  1  0
M  END
>  <Name>  (308) 
(+)-Anomalin

>  <PubChem ID>  (308) 
6450453

>  <CDB ID>  (308) 
CDB0308

>  <Smiles>  (308) 
CC=C(C)C(=O)OC1C(C(OC2=C1C3=C(C=C2)C=CC(=O)O3)(C)C)OC(=O)C(=CC)C

>  <Chemical class>  (308) 
7-Oxygenated Coumarins

>  <Natural source>  (308) 
Peucedanum formosanum

>  <Molecular Formula>  (308) 
C24H26O7

>  <InChI-Key>  (308) 
PNTWXEIQXBRCPS-UHFFFAOYSA-N

>  <Total Molweight>  (308) 
426.463

>  <cLogP>  (308) 
4.605

>  <cLogS>  (308) 
-4.239

>  <H-Acceptors>  (308) 
7

>  <H-Donors>  (308) 
0

>  <Rotatable Bonds>  (308) 
6

>  <Polar Surface Area>  (308) 
88.13

$$$$
CDB0309
     RDKit          3D

 59 61  0  0  0  0  0  0  0  0999 V2000
   -2.7465    5.5196    0.5716 C   0  0  0  0  0  0  0  0  0  0  0  0
   -2.1943    4.3131   -0.1169 C   0  0  0  0  0  0  0  0  0  0  0  0
   -2.2651    3.0283    0.2864 C   0  0  0  0  0  0  0  0  0  0  0  0
   -2.8882    2.5367    1.5584 C   0  0  0  0  0  0  0  0  0  0  0  0
   -1.6253    2.0131   -0.6058 C   0  0  0  0  0  0  0  0  0  0  0  0
   -0.8396    2.2755   -1.5037 O   0  0  0  0  0  0  0  0  0  0  0  0
   -2.0562    0.7708   -0.2750 O   0  0  0  0  0  0  0  0  0  0  0  0
   -1.5103   -0.3371   -1.0292 C   0  0  0  0  0  0  0  0  0  0  0  0
   -0.3301   -0.9679   -0.2661 C   0  0  0  0  0  0  0  0  0  0  0  0
   -0.0385   -2.3661   -0.7549 C   0  0  0  0  0  0  0  0  0  0  0  0
   -0.9414   -3.0333   -1.5854 C   0  0  0  0  0  0  0  0  0  0  0  0
   -0.6584   -4.3152   -2.0676 C   0  0  0  0  0  0  0  0  0  0  0  0
    0.5158   -4.9715   -1.6957 C   0  0  0  0  0  0  0  0  0  0  0  0
    1.4119   -4.3467   -0.8312 C   0  0  0  0  0  0  0  0  0  0  0  0
    1.1214   -3.0605   -0.3682 C   0  0  0  0  0  0  0  0  0  0  0  0
    2.0132   -2.4252    0.5287 O   0  0  0  0  0  0  0  0  0  0  0  0
    3.2010   -3.0150    0.9347 C   0  0  0  0  0  0  0  0  0  0  0  0
    3.9920   -2.4528    1.6824 O   0  0  0  0  0  0  0  0  0  0  0  0
    3.4746   -4.3674    0.4236 C   0  0  0  0  0  0  0  0  0  0  0  0
    2.6388   -5.0008   -0.4042 C   0  0  0  0  0  0  0  0  0  0  0  0
   -2.1380   -2.5133   -1.9920 O   0  0  0  0  0  0  0  0  0  0  0  0
   -2.6270   -1.3775   -1.2560 C   0  0  0  0  0  0  0  0  0  0  0  0
   -3.2969   -1.8629    0.0431 C   0  0  0  0  0  0  0  0  0  0  0  0
   -3.7237   -0.7598   -2.1431 C   0  0  0  0  0  0  0  0  0  0  0  0
    0.8450   -0.1606   -0.4946 O   0  0  0  0  0  0  0  0  0  0  0  0
    1.1549    0.7438    0.4745 C   0  0  0  0  0  0  0  0  0  0  0  0
    0.4919    0.9482    1.4817 O   0  0  0  0  0  0  0  0  0  0  0  0
    2.4148    1.4847    0.0885 C   0  0  0  0  0  0  0  0  0  0  0  0
    3.1031    2.1571    1.2856 C   0  0  0  0  0  0  0  0  0  0  0  0
    4.1750    3.1315    0.7946 C   0  0  0  0  0  0  0  0  0  0  0  0
    3.7329    1.1218    2.2209 C   0  0  0  0  0  0  0  0  0  0  0  0
   -3.3678    6.0867   -0.1291 H   0  0  0  0  0  0  0  0  0  0  0  0
   -3.3663    5.2844    1.4389 H   0  0  0  0  0  0  0  0  0  0  0  0
   -1.9272    6.1668    0.8993 H   0  0  0  0  0  0  0  0  0  0  0  0
   -1.6871    4.5414   -1.0558 H   0  0  0  0  0  0  0  0  0  0  0  0
   -3.8115    1.9885    1.3438 H   0  0  0  0  0  0  0  0  0  0  0  0
   -2.2026    1.8686    2.0908 H   0  0  0  0  0  0  0  0  0  0  0  0
   -3.1337    3.3426    2.2539 H   0  0  0  0  0  0  0  0  0  0  0  0
   -1.1540    0.0036   -2.0121 H   0  0  0  0  0  0  0  0  0  0  0  0
   -0.5583   -1.0315    0.8058 H   0  0  0  0  0  0  0  0  0  0  0  0
   -1.3665   -4.8095   -2.7294 H   0  0  0  0  0  0  0  0  0  0  0  0
    0.7104   -5.9697   -2.0798 H   0  0  0  0  0  0  0  0  0  0  0  0
    4.3991   -4.8205    0.7601 H   0  0  0  0  0  0  0  0  0  0  0  0
    2.8614   -5.9978   -0.7685 H   0  0  0  0  0  0  0  0  0  0  0  0
   -4.0686   -2.6095   -0.1789 H   0  0  0  0  0  0  0  0  0  0  0  0
   -2.5860   -2.3571    0.7128 H   0  0  0  0  0  0  0  0  0  0  0  0
   -3.7654   -1.0396    0.5920 H   0  0  0  0  0  0  0  0  0  0  0  0
   -4.4939   -1.5020   -2.3840 H   0  0  0  0  0  0  0  0  0  0  0  0
   -3.3071   -0.4295   -3.1018 H   0  0  0  0  0  0  0  0  0  0  0  0
   -4.2096    0.0959   -1.6633 H   0  0  0  0  0  0  0  0  0  0  0  0
    2.1245    2.2376   -0.6537 H   0  0  0  0  0  0  0  0  0  0  0  0
    3.1085    0.7818   -0.3886 H   0  0  0  0  0  0  0  0  0  0  0  0
    2.3631    2.7305    1.8580 H   0  0  0  0  0  0  0  0  0  0  0  0
    4.6635    3.6304    1.6383 H   0  0  0  0  0  0  0  0  0  0  0  0
    4.9464    2.6148    0.2132 H   0  0  0  0  0  0  0  0  0  0  0  0
    3.7339    3.9069    0.1593 H   0  0  0  0  0  0  0  0  0  0  0  0
    4.4920    0.5273    1.7013 H   0  0  0  0  0  0  0  0  0  0  0  0
    2.9802    0.4346    2.6200 H   0  0  0  0  0  0  0  0  0  0  0  0
    4.2155    1.6133    3.0725 H   0  0  0  0  0  0  0  0  0  0  0  0
  1  2  1  0
  2  3  2  3
  3  4  1  0
  3  5  1  0
  5  6  2  0
  5  7  1  0
  7  8  1  0
  8  9  1  0
  9 10  1  0
 10 11  2  0
 11 12  1  0
 12 13  2  0
 13 14  1  0
 14 15  2  0
 15 16  1  0
 16 17  1  0
 17 18  2  0
 17 19  1  0
 19 20  2  0
 11 21  1  0
 21 22  1  0
 22 23  1  0
 22 24  1  0
  9 25  1  0
 25 26  1  0
 26 27  2  0
 26 28  1  0
 28 29  1  0
 29 30  1  0
 29 31  1  0
 22  8  1  0
 15 10  1  0
 20 14  1  0
  1 32  1  0
  1 33  1  0
  1 34  1  0
  2 35  1  0
  4 36  1  0
  4 37  1  0
  4 38  1  0
  8 39  1  0
  9 40  1  0
 12 41  1  0
 13 42  1  0
 19 43  1  0
 20 44  1  0
 23 45  1  0
 23 46  1  0
 23 47  1  0
 24 48  1  0
 24 49  1  0
 24 50  1  0
 28 51  1  0
 28 52  1  0
 29 53  1  0
 30 54  1  0
 30 55  1  0
 30 56  1  0
 31 57  1  0
 31 58  1  0
 31 59  1  0
M  END
>  <Name>  (309) 
Praeruptorin E

>  <PubChem ID>  (309) 
6440581

>  <CDB ID>  (309) 
CDB0309

>  <Smiles>  (309) 
CC=C(C)C(=O)OC1C(C2=C(C=CC3=C2OC(=O)C=C3)OC1(C)C)OC(=O)CC(C)C

>  <Chemical class>  (309) 
7-Oxygenated Coumarins

>  <Natural source>  (309) 
Peucedanum praeruptorum

>  <Molecular Formula>  (309) 
C24H28O7

>  <InChI-Key>  (309) 
UFUVJROSOIXJGR-UHFFFAOYSA-N

>  <Total Molweight>  (309) 
428.479

>  <cLogP>  (309) 
4.4691

>  <cLogS>  (309) 
-4.503

>  <H-Acceptors>  (309) 
7

>  <H-Donors>  (309) 
0

>  <Rotatable Bonds>  (309) 
7

>  <Polar Surface Area>  (309) 
88.13

$$$$
CDB0310
     RDKit          3D

 57 59  0  0  0  0  0  0  0  0999 V2000
   -3.5438   -4.3462   -0.9486 C   0  0  0  0  0  0  0  0  0  0  0  0
   -2.8746   -4.2174    0.3838 C   0  0  0  0  0  0  0  0  0  0  0  0
   -2.1267   -3.1923    0.8373 C   0  0  0  0  0  0  0  0  0  0  0  0
   -1.5316   -3.1837    2.2148 C   0  0  0  0  0  0  0  0  0  0  0  0
   -1.8039   -2.0288   -0.0316 C   0  0  0  0  0  0  0  0  0  0  0  0
   -1.5103   -2.1022   -1.2137 O   0  0  0  0  0  0  0  0  0  0  0  0
   -1.9021   -0.8905    0.6981 O   0  0  0  0  0  0  0  0  0  0  0  0
   -1.6508    0.3537    0.0027 C   0  0  0  0  0  0  0  0  0  0  0  0
   -0.1871    0.7869    0.2009 C   0  0  0  0  0  0  0  0  0  0  0  0
    0.0019    2.2569   -0.0827 C   0  0  0  0  0  0  0  0  0  0  0  0
   -1.1002    3.1012   -0.2320 C   0  0  0  0  0  0  0  0  0  0  0  0
   -0.9281    4.4560   -0.5332 C   0  0  0  0  0  0  0  0  0  0  0  0
    0.3516    5.0013   -0.6499 C   0  0  0  0  0  0  0  0  0  0  0  0
    1.4683    4.1908   -0.4570 C   0  0  0  0  0  0  0  0  0  0  0  0
    1.2799    2.8365   -0.1694 C   0  0  0  0  0  0  0  0  0  0  0  0
    2.4060    2.0091    0.0566 O   0  0  0  0  0  0  0  0  0  0  0  0
    3.7062    2.4827   -0.0381 C   0  0  0  0  0  0  0  0  0  0  0  0
    4.6841    1.7649    0.1338 O   0  0  0  0  0  0  0  0  0  0  0  0
    3.8646    3.9114   -0.3545 C   0  0  0  0  0  0  0  0  0  0  0  0
    2.8195    4.7207   -0.5500 C   0  0  0  0  0  0  0  0  0  0  0  0
   -2.3990    2.6953   -0.1048 O   0  0  0  0  0  0  0  0  0  0  0  0
   -2.6136    1.4296    0.5467 C   0  0  0  0  0  0  0  0  0  0  0  0
   -2.5331    1.6211    2.0727 C   0  0  0  0  0  0  0  0  0  0  0  0
   -4.0618    1.0356    0.2021 C   0  0  0  0  0  0  0  0  0  0  0  0
    0.6269    0.0430   -0.7290 O   0  0  0  0  0  0  0  0  0  0  0  0
    1.3219   -0.9962   -0.2092 C   0  0  0  0  0  0  0  0  0  0  0  0
    1.3001   -1.3839    0.9463 O   0  0  0  0  0  0  0  0  0  0  0  0
    2.1118   -1.5947   -1.3046 C   0  0  0  0  0  0  0  0  0  0  0  0
    3.3677   -2.0636   -1.1780 C   0  0  0  0  0  0  0  0  0  0  0  0
    4.1940   -1.9951    0.0779 C   0  0  0  0  0  0  0  0  0  0  0  0
    4.0681   -2.6918   -2.3521 C   0  0  0  0  0  0  0  0  0  0  0  0
   -3.0120   -5.0763   -1.5658 H   0  0  0  0  0  0  0  0  0  0  0  0
   -4.5686   -4.7048   -0.8055 H   0  0  0  0  0  0  0  0  0  0  0  0
   -3.6114   -3.4028   -1.4951 H   0  0  0  0  0  0  0  0  0  0  0  0
   -3.0441   -5.0636    1.0481 H   0  0  0  0  0  0  0  0  0  0  0  0
   -1.7072   -4.1283    2.7408 H   0  0  0  0  0  0  0  0  0  0  0  0
   -1.9673   -2.3842    2.8228 H   0  0  0  0  0  0  0  0  0  0  0  0
   -0.4487   -3.0361    2.1654 H   0  0  0  0  0  0  0  0  0  0  0  0
   -1.8432    0.2358   -1.0738 H   0  0  0  0  0  0  0  0  0  0  0  0
    0.1238    0.6047    1.2378 H   0  0  0  0  0  0  0  0  0  0  0  0
   -1.8002    5.0928   -0.6655 H   0  0  0  0  0  0  0  0  0  0  0  0
    0.4591    6.0584   -0.8796 H   0  0  0  0  0  0  0  0  0  0  0  0
    4.8849    4.2691   -0.4184 H   0  0  0  0  0  0  0  0  0  0  0  0
    2.9613    5.7708   -0.7812 H   0  0  0  0  0  0  0  0  0  0  0  0
   -2.7819    0.7014    2.6120 H   0  0  0  0  0  0  0  0  0  0  0  0
   -1.5387    1.9457    2.3950 H   0  0  0  0  0  0  0  0  0  0  0  0
   -3.2253    2.4068    2.3978 H   0  0  0  0  0  0  0  0  0  0  0  0
   -4.1861    0.9228   -0.8812 H   0  0  0  0  0  0  0  0  0  0  0  0
   -4.3607    0.0993    0.6843 H   0  0  0  0  0  0  0  0  0  0  0  0
   -4.7629    1.8202    0.5102 H   0  0  0  0  0  0  0  0  0  0  0  0
    1.5905   -1.6371   -2.2559 H   0  0  0  0  0  0  0  0  0  0  0  0
    4.3215   -2.9972    0.4995 H   0  0  0  0  0  0  0  0  0  0  0  0
    3.7628   -1.3511    0.8478 H   0  0  0  0  0  0  0  0  0  0  0  0
    5.1859   -1.5880   -0.1471 H   0  0  0  0  0  0  0  0  0  0  0  0
    4.3641   -3.7180   -2.1111 H   0  0  0  0  0  0  0  0  0  0  0  0
    4.9664   -2.1211   -2.6093 H   0  0  0  0  0  0  0  0  0  0  0  0
    3.4321   -2.7304   -3.2429 H   0  0  0  0  0  0  0  0  0  0  0  0
  1  2  1  0
  2  3  2  3
  3  4  1  0
  3  5  1  0
  5  6  2  0
  5  7  1  0
  7  8  1  0
  8  9  1  0
  9 10  1  0
 10 11  2  0
 11 12  1  0
 12 13  2  0
 13 14  1  0
 14 15  2  0
 15 16  1  0
 16 17  1  0
 17 18  2  0
 17 19  1  0
 19 20  2  0
 11 21  1  0
 21 22  1  0
 22 23  1  0
 22 24  1  0
  9 25  1  0
 25 26  1  0
 26 27  2  0
 26 28  1  0
 28 29  2  3
 29 30  1  0
 29 31  1  0
 22  8  1  0
 15 10  1  0
 20 14  1  0
  1 32  1  0
  1 33  1  0
  1 34  1  0
  2 35  1  0
  4 36  1  0
  4 37  1  0
  4 38  1  0
  8 39  1  0
  9 40  1  0
 12 41  1  0
 13 42  1  0
 19 43  1  0
 20 44  1  0
 23 45  1  0
 23 46  1  0
 23 47  1  0
 24 48  1  0
 24 49  1  0
 24 50  1  0
 28 51  1  0
 30 52  1  0
 30 53  1  0
 30 54  1  0
 31 55  1  0
 31 56  1  0
 31 57  1  0
M  END
>  <Name>  (310) 
Peuformosin

>  <PubChem ID>  (310) 
101289691

>  <CDB ID>  (310) 
CDB0310

>  <Smiles>  (310) 
CC=C(C)C(=O)OC1C(C2=C(C=CC3=C2OC(=O)C=C3)OC1(C)C)OC(=O)C=C(C)C

>  <Chemical class>  (310) 
7-Oxygenated Coumarins

>  <Natural source>  (310) 
Peucedanum formosanum

>  <Molecular Formula>  (310) 
C24H26O7

>  <InChI-Key>  (310) 
WKQRMUACBRBLQV-UHFFFAOYSA-N

>  <Total Molweight>  (310) 
426.463

>  <cLogP>  (310) 
4.605

>  <cLogS>  (310) 
-4.239

>  <H-Acceptors>  (310) 
7

>  <H-Donors>  (310) 
0

>  <Rotatable Bonds>  (310) 
6

>  <Polar Surface Area>  (310) 
88.13

$$$$
CDB0311
     RDKit          3D

 44 46  0  0  0  0  0  0  0  0999 V2000
    4.7756   -2.1582    0.5293 C   0  0  0  0  0  0  0  0  0  0  0  0
    4.8004   -0.6975    0.1689 C   0  0  0  0  0  0  0  0  0  0  0  0
    3.7530    0.1480    0.2342 C   0  0  0  0  0  0  0  0  0  0  0  0
    2.3919   -0.1739    0.7259 C   0  0  0  0  0  0  0  0  0  0  0  0
    2.0680   -1.1506    1.3758 O   0  0  0  0  0  0  0  0  0  0  0  0
    1.5698    0.8313    0.3285 O   0  0  0  0  0  0  0  0  0  0  0  0
    0.1853    0.6963    0.7111 C   0  0  0  0  0  0  0  0  0  0  0  0
   -0.5382   -0.2243   -0.2725 C   0  0  0  0  0  0  0  0  0  0  0  0
   -2.0265   -0.1042   -0.1354 C   0  0  0  0  0  0  0  0  0  0  0  0
   -2.5990    0.9791    0.5339 C   0  0  0  0  0  0  0  0  0  0  0  0
   -3.9864    1.0720    0.6764 C   0  0  0  0  0  0  0  0  0  0  0  0
   -4.8242    0.0986    0.1268 C   0  0  0  0  0  0  0  0  0  0  0  0
   -4.2736   -0.9752   -0.5713 C   0  0  0  0  0  0  0  0  0  0  0  0
   -2.8854   -1.0606   -0.6956 C   0  0  0  0  0  0  0  0  0  0  0  0
   -2.3041   -2.1352   -1.4072 O   0  0  0  0  0  0  0  0  0  0  0  0
   -3.0764   -3.1262   -1.9960 C   0  0  0  0  0  0  0  0  0  0  0  0
   -2.5856   -4.0564   -2.6249 O   0  0  0  0  0  0  0  0  0  0  0  0
   -4.5356   -3.0130   -1.8360 C   0  0  0  0  0  0  0  0  0  0  0  0
   -5.1068   -2.0059   -1.1692 C   0  0  0  0  0  0  0  0  0  0  0  0
   -1.8817    1.9960    1.1010 O   0  0  0  0  0  0  0  0  0  0  0  0
   -0.4892    2.0881    0.7400 C   0  0  0  0  0  0  0  0  0  0  0  0
   -0.3684    2.8581   -0.5876 C   0  0  0  0  0  0  0  0  0  0  0  0
    0.1642    2.9441    1.8397 C   0  0  0  0  0  0  0  0  0  0  0  0
    6.1423   -0.2045   -0.3069 C   0  0  0  0  0  0  0  0  0  0  0  0
    3.7700   -2.5786    0.5841 H   0  0  0  0  0  0  0  0  0  0  0  0
    5.2730   -2.3170    1.4913 H   0  0  0  0  0  0  0  0  0  0  0  0
    5.3073   -2.7420   -0.2305 H   0  0  0  0  0  0  0  0  0  0  0  0
    3.8767    1.1814   -0.0775 H   0  0  0  0  0  0  0  0  0  0  0  0
    0.1096    0.2657    1.7207 H   0  0  0  0  0  0  0  0  0  0  0  0
   -0.2457    0.0091   -1.3038 H   0  0  0  0  0  0  0  0  0  0  0  0
   -0.2223   -1.2581   -0.0875 H   0  0  0  0  0  0  0  0  0  0  0  0
   -4.4166    1.9140    1.2140 H   0  0  0  0  0  0  0  0  0  0  0  0
   -5.9001    0.1955    0.2475 H   0  0  0  0  0  0  0  0  0  0  0  0
   -5.1217   -3.7995   -2.2954 H   0  0  0  0  0  0  0  0  0  0  0  0
   -6.1843   -1.9429   -1.0646 H   0  0  0  0  0  0  0  0  0  0  0  0
    0.6765    3.0246   -0.8683 H   0  0  0  0  0  0  0  0  0  0  0  0
   -0.8626    3.8340   -0.5120 H   0  0  0  0  0  0  0  0  0  0  0  0
   -0.8648    2.3349   -1.4111 H   0  0  0  0  0  0  0  0  0  0  0  0
   -0.3386    3.9143    1.9293 H   0  0  0  0  0  0  0  0  0  0  0  0
    0.0677    2.4585    2.8177 H   0  0  0  0  0  0  0  0  0  0  0  0
    1.2264    3.1238    1.6452 H   0  0  0  0  0  0  0  0  0  0  0  0
    6.4451   -0.7403   -1.2126 H   0  0  0  0  0  0  0  0  0  0  0  0
    6.1340    0.8653   -0.5411 H   0  0  0  0  0  0  0  0  0  0  0  0
    6.9008   -0.3688    0.4655 H   0  0  0  0  0  0  0  0  0  0  0  0
  1  2  1  0
  2  3  2  3
  3  4  1  0
  4  5  2  0
  4  6  1  0
  6  7  1  0
  7  8  1  0
  8  9  1  0
  9 10  2  0
 10 11  1  0
 11 12  2  0
 12 13  1  0
 13 14  2  0
 14 15  1  0
 15 16  1  0
 16 17  2  0
 16 18  1  0
 18 19  2  0
 10 20  1  0
 20 21  1  0
 21 22  1  0
 21 23  1  0
  2 24  1  0
 21  7  1  0
 14  9  1  0
 19 13  1  0
  1 25  1  0
  1 26  1  0
  1 27  1  0
  3 28  1  0
  7 29  1  0
  8 30  1  0
  8 31  1  0
 11 32  1  0
 12 33  1  0
 18 34  1  0
 19 35  1  0
 22 36  1  0
 22 37  1  0
 22 38  1  0
 23 39  1  0
 23 40  1  0
 23 41  1  0
 24 42  1  0
 24 43  1  0
 24 44  1  0
M  END
>  <Name>  (311) 
Peujaponisinol A

>  <PubChem ID>  (311) 
101049705

>  <CDB ID>  (311) 
CDB0311

>  <Smiles>  (311) 
CC(=CC(=O)OC1CC2=C(C=CC3=C2OC(=O)C=C3)OC1(C)C)C

>  <Chemical class>  (311) 
7-Oxygenated Coumarins

>  <Natural source>  (311) 
Peucedanum japonicum

>  <Molecular Formula>  (311) 
C19H20O5

>  <InChI-Key>  (311) 
TUNHPCYKZAZELC-OAHLLOKOSA-N

>  <Total Molweight>  (311) 
328.363

>  <cLogP>  (311) 
3.5834

>  <cLogS>  (311) 
-3.941

>  <H-Acceptors>  (311) 
5

>  <H-Donors>  (311) 
0

>  <Rotatable Bonds>  (311) 
3

>  <Polar Surface Area>  (311) 
61.83

$$$$
CDB0312
     RDKit          3D

 59 61  0  0  0  0  0  0  0  0999 V2000
   -3.2816   -2.4188   -2.9219 C   0  0  0  0  0  0  0  0  0  0  0  0
   -2.0548   -2.0857   -2.0721 C   0  0  0  0  0  0  0  0  0  0  0  0
   -0.8574   -1.7911   -2.9784 C   0  0  0  0  0  0  0  0  0  0  0  0
   -2.3610   -0.9000   -1.1476 C   0  0  0  0  0  0  0  0  0  0  0  0
   -1.2880   -0.7115   -0.1019 C   0  0  0  0  0  0  0  0  0  0  0  0
   -0.8864   -1.5973    0.6378 O   0  0  0  0  0  0  0  0  0  0  0  0
   -0.8438    0.5718   -0.1132 O   0  0  0  0  0  0  0  0  0  0  0  0
    0.1630    0.9176    0.8594 C   0  0  0  0  0  0  0  0  0  0  0  0
    1.5848    0.8030    0.2790 C   0  0  0  0  0  0  0  0  0  0  0  0
    1.8779    1.9449   -0.7217 C   0  0  0  0  0  0  0  0  0  0  0  0
    1.7144    3.2382   -0.1071 O   0  0  0  0  0  0  0  0  0  0  0  0
    0.6683    3.3926    0.7595 C   0  0  0  0  0  0  0  0  0  0  0  0
   -0.1094    2.3441    1.2573 C   0  0  0  0  0  0  0  0  0  0  0  0
   -1.1664    2.6649    2.1242 C   0  0  0  0  0  0  0  0  0  0  0  0
   -1.4348    3.9779    2.5166 C   0  0  0  0  0  0  0  0  0  0  0  0
   -0.6298    5.0057    2.0293 C   0  0  0  0  0  0  0  0  0  0  0  0
    0.4169    4.7109    1.1531 C   0  0  0  0  0  0  0  0  0  0  0  0
   -2.5428    4.2399    3.4207 C   0  0  0  0  0  0  0  0  0  0  0  0
   -3.3019    3.2268    3.8477 C   0  0  0  0  0  0  0  0  0  0  0  0
   -3.0622    1.8339    3.4361 C   0  0  0  0  0  0  0  0  0  0  0  0
   -3.7949    0.9316    3.8230 O   0  0  0  0  0  0  0  0  0  0  0  0
   -1.9797    1.6087    2.5973 O   0  0  0  0  0  0  0  0  0  0  0  0
    3.3620    1.8755   -1.1327 C   0  0  0  0  0  0  0  0  0  0  0  0
    1.0424    1.9032   -2.0120 C   0  0  0  0  0  0  0  0  0  0  0  0
    1.7987   -0.4764   -0.3507 O   0  0  0  0  0  0  0  0  0  0  0  0
    2.1600   -1.4784    0.4938 C   0  0  0  0  0  0  0  0  0  0  0  0
    2.3770   -1.3661    1.6870 O   0  0  0  0  0  0  0  0  0  0  0  0
    2.2763   -2.7170   -0.3088 C   0  0  0  0  0  0  0  0  0  0  0  0
    2.1285   -3.9710    0.1599 C   0  0  0  0  0  0  0  0  0  0  0  0
    1.7531   -4.3328    1.5716 C   0  0  0  0  0  0  0  0  0  0  0  0
    2.3119   -5.1520   -0.7552 C   0  0  0  0  0  0  0  0  0  0  0  0
   -4.1367   -2.6736   -2.2869 H   0  0  0  0  0  0  0  0  0  0  0  0
   -3.5693   -1.5723   -3.5548 H   0  0  0  0  0  0  0  0  0  0  0  0
   -3.0828   -3.2767   -3.5730 H   0  0  0  0  0  0  0  0  0  0  0  0
   -1.8128   -2.9678   -1.4660 H   0  0  0  0  0  0  0  0  0  0  0  0
    0.0466   -1.6034   -2.3917 H   0  0  0  0  0  0  0  0  0  0  0  0
   -0.6518   -2.6415   -3.6372 H   0  0  0  0  0  0  0  0  0  0  0  0
   -1.0407   -0.9132   -3.6072 H   0  0  0  0  0  0  0  0  0  0  0  0
   -2.4747    0.0187   -1.7360 H   0  0  0  0  0  0  0  0  0  0  0  0
   -3.3038   -1.0531   -0.6093 H   0  0  0  0  0  0  0  0  0  0  0  0
    0.0846    0.2733    1.7443 H   0  0  0  0  0  0  0  0  0  0  0  0
    2.2931    0.9329    1.1119 H   0  0  0  0  0  0  0  0  0  0  0  0
   -0.8064    6.0394    2.3159 H   0  0  0  0  0  0  0  0  0  0  0  0
    1.0397    5.5152    0.7674 H   0  0  0  0  0  0  0  0  0  0  0  0
   -2.7398    5.2587    3.7363 H   0  0  0  0  0  0  0  0  0  0  0  0
   -4.1377    3.3819    4.5190 H   0  0  0  0  0  0  0  0  0  0  0  0
    4.0126    1.9417   -0.2529 H   0  0  0  0  0  0  0  0  0  0  0  0
    3.5974    0.9509   -1.6697 H   0  0  0  0  0  0  0  0  0  0  0  0
    3.6305    2.7238   -1.7734 H   0  0  0  0  0  0  0  0  0  0  0  0
   -0.0109    2.1350   -1.8300 H   0  0  0  0  0  0  0  0  0  0  0  0
    1.3866    2.6699   -2.7168 H   0  0  0  0  0  0  0  0  0  0  0  0
    1.1089    0.9311   -2.5102 H   0  0  0  0  0  0  0  0  0  0  0  0
    2.5031   -2.5493   -1.3568 H   0  0  0  0  0  0  0  0  0  0  0  0
    1.3561   -3.4934    2.1462 H   0  0  0  0  0  0  0  0  0  0  0  0
    0.9689   -5.0982    1.5675 H   0  0  0  0  0  0  0  0  0  0  0  0
    2.6222   -4.7363    2.1006 H   0  0  0  0  0  0  0  0  0  0  0  0
    1.3821   -5.7258   -0.8272 H   0  0  0  0  0  0  0  0  0  0  0  0
    3.0987   -5.8094   -0.3709 H   0  0  0  0  0  0  0  0  0  0  0  0
    2.5963   -4.8518   -1.7693 H   0  0  0  0  0  0  0  0  0  0  0  0
  1  2  1  0
  2  3  1  0
  2  4  1  0
  4  5  1  0
  5  6  2  0
  5  7  1  0
  7  8  1  0
  8  9  1  0
  9 10  1  0
 10 11  1  0
 11 12  1  0
 12 13  2  0
 13 14  1  0
 14 15  2  0
 15 16  1  0
 16 17  2  0
 15 18  1  0
 18 19  2  0
 19 20  1  0
 20 21  2  0
 20 22  1  0
 10 23  1  0
 10 24  1  0
  9 25  1  0
 25 26  1  0
 26 27  2  0
 26 28  1  0
 28 29  2  3
 29 30  1  0
 29 31  1  0
 13  8  1  0
 17 12  1  0
 22 14  1  0
  1 32  1  0
  1 33  1  0
  1 34  1  0
  2 35  1  0
  3 36  1  0
  3 37  1  0
  3 38  1  0
  4 39  1  0
  4 40  1  0
  8 41  1  0
  9 42  1  0
 16 43  1  0
 17 44  1  0
 18 45  1  0
 19 46  1  0
 23 47  1  0
 23 48  1  0
 23 49  1  0
 24 50  1  0
 24 51  1  0
 24 52  1  0
 28 53  1  0
 30 54  1  0
 30 55  1  0
 30 56  1  0
 31 57  1  0
 31 58  1  0
 31 59  1  0
M  END
>  <Name>  (312) 
Peujaponisin

>  <PubChem ID>  (312) 
10342527

>  <CDB ID>  (312) 
CDB0312

>  <Smiles>  (312) 
CC(C)CC(=O)OC1C(C(OC2=C1C3=C(C=C2)C=CC(=O)O3)(C)C)OC(=O)C=C(C)C

>  <Chemical class>  (312) 
7-Oxygenated Coumarins

>  <Natural source>  (312) 
Peucedanum japonicum

>  <Molecular Formula>  (312) 
C24H28O7

>  <InChI-Key>  (312) 
BOMPXBBNKNYVGU-UHFFFAOYSA-N

>  <Total Molweight>  (312) 
428.479

>  <cLogP>  (312) 
4.4691

>  <cLogS>  (312) 
-4.503

>  <H-Acceptors>  (312) 
7

>  <H-Donors>  (312) 
0

>  <Rotatable Bonds>  (312) 
7

>  <Polar Surface Area>  (312) 
88.13

$$$$
CDB0313
     RDKit          3D

 61 66  0  0  0  0  0  0  0  0999 V2000
   -2.1836   -3.4678    0.1419 C   0  0  0  0  0  0  0  0  0  0  0  0
   -2.1780   -2.3329   -0.8985 C   0  0  0  0  0  0  0  0  0  0  0  0
   -1.0119   -1.3693   -0.6001 C   0  0  0  0  0  0  0  0  0  0  0  0
   -1.0477   -0.1460   -1.5495 C   0  0  0  0  0  0  0  0  0  0  0  0
   -2.4702    0.3501   -1.7235 C   0  0  0  0  0  0  0  0  0  0  0  0
   -3.5531   -0.4270   -1.2998 C   0  0  0  0  0  0  0  0  0  0  0  0
   -3.4415   -1.6678   -0.7399 O   0  0  0  0  0  0  0  0  0  0  0  0
   -4.8676    0.0378   -1.4193 C   0  0  0  0  0  0  0  0  0  0  0  0
   -5.1338    1.2766   -1.9996 C   0  0  0  0  0  0  0  0  0  0  0  0
   -4.0805    2.0548   -2.4711 C   0  0  0  0  0  0  0  0  0  0  0  0
   -2.7705    1.5810   -2.3357 C   0  0  0  0  0  0  0  0  0  0  0  0
   -1.7016    2.3598   -2.8380 O   0  0  0  0  0  0  0  0  0  0  0  0
   -1.9002    3.6035   -3.4243 C   0  0  0  0  0  0  0  0  0  0  0  0
   -0.9642    4.2753   -3.8377 O   0  0  0  0  0  0  0  0  0  0  0  0
   -3.2877    4.0719   -3.5374 C   0  0  0  0  0  0  0  0  0  0  0  0
   -4.3186    3.3473   -3.0948 C   0  0  0  0  0  0  0  0  0  0  0  0
   -0.2695    0.9360   -0.9713 O   0  0  0  0  0  0  0  0  0  0  0  0
    1.0828    0.8522   -1.2041 C   0  0  0  0  0  0  0  0  0  0  0  0
    1.6443    0.9656   -2.4787 C   0  0  0  0  0  0  0  0  0  0  0  0
    3.0164    0.8243   -2.6711 C   0  0  0  0  0  0  0  0  0  0  0  0
    3.8515    0.6062   -1.5759 C   0  0  0  0  0  0  0  0  0  0  0  0
    3.3022    0.5481   -0.2914 C   0  0  0  0  0  0  0  0  0  0  0  0
    1.9207    0.6970   -0.0897 C   0  0  0  0  0  0  0  0  0  0  0  0
    1.3875    0.5966    1.2070 N   0  0  0  0  0  0  0  0  0  0  0  0
    2.1687    0.3923    2.3507 C   0  0  0  0  0  0  0  0  0  0  0  0
    3.5572    0.2278    2.2368 C   0  0  0  0  0  0  0  0  0  0  0  0
    4.1711    0.3145    0.8884 C   0  0  0  0  0  0  0  0  0  0  0  0
    5.3870    0.1842    0.7658 O   0  0  0  0  0  0  0  0  0  0  0  0
    4.3327   -0.0080    3.3764 C   0  0  0  0  0  0  0  0  0  0  0  0
    3.7349   -0.0926    4.6331 C   0  0  0  0  0  0  0  0  0  0  0  0
    2.3529    0.0554    4.7560 C   0  0  0  0  0  0  0  0  0  0  0  0
    1.5773    0.2925    3.6136 C   0  0  0  0  0  0  0  0  0  0  0  0
    1.6389   -0.0112    5.9216 O   0  0  0  0  0  0  0  0  0  0  0  0
    2.3786   -0.2454    7.1148 C   0  0  0  0  0  0  0  0  0  0  0  0
    5.6921   -0.1696    3.3308 O   0  0  0  0  0  0  0  0  0  0  0  0
    0.8917    1.2483   -3.5807 O   0  0  0  0  0  0  0  0  0  0  0  0
    0.2305   -2.0775   -0.7056 O   0  0  0  0  0  0  0  0  0  0  0  0
   -2.1075   -2.9777   -2.2943 C   0  0  0  0  0  0  0  0  0  0  0  0
   -1.2800   -4.0835    0.0867 H   0  0  0  0  0  0  0  0  0  0  0  0
   -2.2662   -3.0631    1.1574 H   0  0  0  0  0  0  0  0  0  0  0  0
   -3.0532   -4.1207    0.0016 H   0  0  0  0  0  0  0  0  0  0  0  0
   -1.0992   -1.0149    0.4367 H   0  0  0  0  0  0  0  0  0  0  0  0
   -0.6615   -0.4281   -2.5361 H   0  0  0  0  0  0  0  0  0  0  0  0
   -5.6906   -0.5800   -1.0657 H   0  0  0  0  0  0  0  0  0  0  0  0
   -6.1641    1.6129   -2.0850 H   0  0  0  0  0  0  0  0  0  0  0  0
   -3.4255    5.0393   -4.0047 H   0  0  0  0  0  0  0  0  0  0  0  0
   -5.3368    3.7094   -3.1899 H   0  0  0  0  0  0  0  0  0  0  0  0
    3.4351    0.9006   -3.6715 H   0  0  0  0  0  0  0  0  0  0  0  0
    4.9232    0.4943   -1.7243 H   0  0  0  0  0  0  0  0  0  0  0  0
    0.4177    0.8743    1.3177 H   0  0  0  0  0  0  0  0  0  0  0  0
    4.3745   -0.2775    5.4897 H   0  0  0  0  0  0  0  0  0  0  0  0
    0.5010    0.3994    3.7255 H   0  0  0  0  0  0  0  0  0  0  0  0
    3.0898    0.5655    7.3037 H   0  0  0  0  0  0  0  0  0  0  0  0
    1.6696   -0.2673    7.9480 H   0  0  0  0  0  0  0  0  0  0  0  0
    2.8836   -1.2164    7.0815 H   0  0  0  0  0  0  0  0  0  0  0  0
    5.9724   -0.0835    2.3902 H   0  0  0  0  0  0  0  0  0  0  0  0
    0.1184    1.7569   -3.2709 H   0  0  0  0  0  0  0  0  0  0  0  0
    0.8702   -1.6321   -0.1214 H   0  0  0  0  0  0  0  0  0  0  0  0
   -1.1893   -3.5590   -2.4268 H   0  0  0  0  0  0  0  0  0  0  0  0
   -2.9624   -3.6457   -2.4522 H   0  0  0  0  0  0  0  0  0  0  0  0
   -2.1580   -2.2333   -3.0952 H   0  0  0  0  0  0  0  0  0  0  0  0
  1  2  1  0
  2  3  1  0
  3  4  1  0
  4  5  1  0
  5  6  2  0
  6  7  1  0
  6  8  1  0
  8  9  2  0
  9 10  1  0
 10 11  2  0
 11 12  1  0
 12 13  1  0
 13 14  2  0
 13 15  1  0
 15 16  2  0
  4 17  1  0
 17 18  1  0
 18 19  2  0
 19 20  1  0
 20 21  2  0
 21 22  1  0
 22 23  2  0
 23 24  1  0
 24 25  1  0
 25 26  1  0
 26 27  1  0
 27 28  2  0
 26 29  2  0
 29 30  1  0
 30 31  2  0
 31 32  1  0
 31 33  1  0
 33 34  1  0
 29 35  1  0
 19 36  1  0
  3 37  1  0
  2 38  1  0
  7  2  1  0
 11  5  1  0
 16 10  1  0
 23 18  1  0
 27 22  1  0
 32 25  2  0
  1 39  1  0
  1 40  1  0
  1 41  1  0
  3 42  1  0
  4 43  1  0
  8 44  1  0
  9 45  1  0
 15 46  1  0
 16 47  1  0
 20 48  1  0
 21 49  1  0
 24 50  1  0
 30 51  1  0
 32 52  1  0
 34 53  1  0
 34 54  1  0
 34 55  1  0
 35 56  1  0
 36 57  1  0
 37 58  1  0
 38 59  1  0
 38 60  1  0
 38 61  1  0
M  END
>  <Name>  (313) 
Neoacrimarine J

>  <PubChem ID>  (313) 
10506059

>  <CDB ID>  (313) 
CDB0313

>  <Smiles>  (313) 
CC1(C(C(C2=C(O1)C=CC3=C2OC(=O)C=C3)OC4=C(C=CC5=C4NC6=C(C5=O)C(=CC(=C6)OC)O)O)O)C

>  <Chemical class>  (313) 
7-Oxygenated Coumarins

>  <Natural source>  (313) 
Citrus paradisi

>  <Molecular Formula>  (313) 
C28H23NO9

>  <InChI-Key>  (313) 
LCGFAZIBUURPDA-UHFFFAOYSA-N

>  <Total Molweight>  (313) 
517.489

>  <cLogP>  (313) 
3.6891

>  <cLogS>  (313) 
-6.022

>  <H-Acceptors>  (313) 
10

>  <H-Donors>  (313) 
4

>  <Rotatable Bonds>  (313) 
3

>  <Polar Surface Area>  (313) 
143.78

$$$$
CDB0314
     RDKit          3D

 64 69  0  0  0  0  0  0  0  0999 V2000
   -4.3374   -0.8209    3.0791 C   0  0  0  0  0  0  0  0  0  0  0  0
   -3.4914   -0.1792    1.9637 C   0  0  0  0  0  0  0  0  0  0  0  0
   -2.3343   -1.1260    1.5879 C   0  0  0  0  0  0  0  0  0  0  0  0
   -1.5291   -0.5700    0.3869 C   0  0  0  0  0  0  0  0  0  0  0  0
   -2.4736   -0.0083   -0.6635 C   0  0  0  0  0  0  0  0  0  0  0  0
   -3.8228    0.2122   -0.3630 C   0  0  0  0  0  0  0  0  0  0  0  0
   -4.3915   -0.0071    0.8593 O   0  0  0  0  0  0  0  0  0  0  0  0
   -4.7156    0.6827   -1.3330 C   0  0  0  0  0  0  0  0  0  0  0  0
   -4.2757    0.9774   -2.6210 C   0  0  0  0  0  0  0  0  0  0  0  0
   -2.9316    0.8118   -2.9405 C   0  0  0  0  0  0  0  0  0  0  0  0
   -2.0504    0.3354   -1.9615 C   0  0  0  0  0  0  0  0  0  0  0  0
   -0.6787    0.2048   -2.2819 O   0  0  0  0  0  0  0  0  0  0  0  0
   -0.1788    0.4825   -3.5480 C   0  0  0  0  0  0  0  0  0  0  0  0
    1.0108    0.3658   -3.8130 O   0  0  0  0  0  0  0  0  0  0  0  0
   -1.1395    0.9539   -4.5533 C   0  0  0  0  0  0  0  0  0  0  0  0
   -2.4347    1.1179   -4.2730 C   0  0  0  0  0  0  0  0  0  0  0  0
   -0.7555   -1.6299   -0.2304 O   0  0  0  0  0  0  0  0  0  0  0  0
    0.4150   -1.9498    0.4236 C   0  0  0  0  0  0  0  0  0  0  0  0
    0.4852   -3.2025    1.0658 C   0  0  0  0  0  0  0  0  0  0  0  0
    1.6477   -3.5713    1.7486 C   0  0  0  0  0  0  0  0  0  0  0  0
    2.7451   -2.7107    1.7737 C   0  0  0  0  0  0  0  0  0  0  0  0
    2.6870   -1.4901    1.0953 C   0  0  0  0  0  0  0  0  0  0  0  0
    1.5408   -1.1110    0.3784 C   0  0  0  0  0  0  0  0  0  0  0  0
    1.5415    0.1052   -0.3209 N   0  0  0  0  0  0  0  0  0  0  0  0
    2.6257    0.9912   -0.3515 C   0  0  0  0  0  0  0  0  0  0  0  0
    3.7896    0.7054    0.3737 C   0  0  0  0  0  0  0  0  0  0  0  0
    3.8559   -0.5755    1.1161 C   0  0  0  0  0  0  0  0  0  0  0  0
    4.8741   -0.8628    1.7428 O   0  0  0  0  0  0  0  0  0  0  0  0
    4.8566    1.6097    0.3788 C   0  0  0  0  0  0  0  0  0  0  0  0
    4.7696    2.8090   -0.3264 C   0  0  0  0  0  0  0  0  0  0  0  0
    3.6102    3.1105   -1.0420 C   0  0  0  0  0  0  0  0  0  0  0  0
    2.5438    2.2020   -1.0461 C   0  0  0  0  0  0  0  0  0  0  0  0
    3.3883    4.2504   -1.7668 O   0  0  0  0  0  0  0  0  0  0  0  0
    4.4598    5.1837   -1.8369 C   0  0  0  0  0  0  0  0  0  0  0  0
    6.0217    1.3806    1.0626 O   0  0  0  0  0  0  0  0  0  0  0  0
   -0.6619   -3.9569    1.0586 O   0  0  0  0  0  0  0  0  0  0  0  0
   -0.4829   -5.3635    1.1906 C   0  0  0  0  0  0  0  0  0  0  0  0
   -1.4967   -1.3204    2.7375 O   0  0  0  0  0  0  0  0  0  0  0  0
   -3.0258    1.1999    2.4648 C   0  0  0  0  0  0  0  0  0  0  0  0
   -3.7673   -0.9582    4.0035 H   0  0  0  0  0  0  0  0  0  0  0  0
   -5.2155   -0.2045    3.3055 H   0  0  0  0  0  0  0  0  0  0  0  0
   -4.7230   -1.7966    2.7609 H   0  0  0  0  0  0  0  0  0  0  0  0
   -2.7502   -2.1054    1.3125 H   0  0  0  0  0  0  0  0  0  0  0  0
   -0.8716    0.2411    0.7226 H   0  0  0  0  0  0  0  0  0  0  0  0
   -5.7627    0.8268   -1.0745 H   0  0  0  0  0  0  0  0  0  0  0  0
   -4.9887    1.3420   -3.3559 H   0  0  0  0  0  0  0  0  0  0  0  0
   -0.7333    1.1683   -5.5342 H   0  0  0  0  0  0  0  0  0  0  0  0
   -3.1284    1.4718   -5.0282 H   0  0  0  0  0  0  0  0  0  0  0  0
    1.7185   -4.5073    2.2938 H   0  0  0  0  0  0  0  0  0  0  0  0
    3.6435   -2.9923    2.3194 H   0  0  0  0  0  0  0  0  0  0  0  0
    0.7995    0.2358   -1.0003 H   0  0  0  0  0  0  0  0  0  0  0  0
    5.6192    3.4823   -0.2931 H   0  0  0  0  0  0  0  0  0  0  0  0
    1.6461    2.4497   -1.6067 H   0  0  0  0  0  0  0  0  0  0  0  0
    4.1351    6.0180   -2.4660 H   0  0  0  0  0  0  0  0  0  0  0  0
    4.6968    5.5864   -0.8466 H   0  0  0  0  0  0  0  0  0  0  0  0
    5.3432    4.7375   -2.3055 H   0  0  0  0  0  0  0  0  0  0  0  0
    5.9402    0.5014    1.4988 H   0  0  0  0  0  0  0  0  0  0  0  0
    0.3014   -5.7366    0.5231 H   0  0  0  0  0  0  0  0  0  0  0  0
   -0.2740   -5.6298    2.2314 H   0  0  0  0  0  0  0  0  0  0  0  0
   -1.4223   -5.8470    0.9059 H   0  0  0  0  0  0  0  0  0  0  0  0
   -1.1177   -2.2141    2.6491 H   0  0  0  0  0  0  0  0  0  0  0  0
   -2.4656    1.7481    1.7008 H   0  0  0  0  0  0  0  0  0  0  0  0
   -3.8885    1.8297    2.7125 H   0  0  0  0  0  0  0  0  0  0  0  0
   -2.3954    1.1167    3.3559 H   0  0  0  0  0  0  0  0  0  0  0  0
  1  2  1  0
  2  3  1  0
  3  4  1  0
  4  5  1  0
  5  6  2  0
  6  7  1  0
  6  8  1  0
  8  9  2  0
  9 10  1  0
 10 11  2  0
 11 12  1  0
 12 13  1  0
 13 14  2  0
 13 15  1  0
 15 16  2  0
  4 17  1  0
 17 18  1  0
 18 19  2  0
 19 20  1  0
 20 21  2  0
 21 22  1  0
 22 23  2  0
 23 24  1  0
 24 25  1  0
 25 26  1  0
 26 27  1  0
 27 28  2  0
 26 29  2  0
 29 30  1  0
 30 31  2  0
 31 32  1  0
 31 33  1  0
 33 34  1  0
 29 35  1  0
 19 36  1  0
 36 37  1  0
  3 38  1  0
  2 39  1  0
  7  2  1  0
 11  5  1  0
 16 10  1  0
 23 18  1  0
 27 22  1  0
 32 25  2  0
  1 40  1  0
  1 41  1  0
  1 42  1  0
  3 43  1  0
  4 44  1  0
  8 45  1  0
  9 46  1  0
 15 47  1  0
 16 48  1  0
 20 49  1  0
 21 50  1  0
 24 51  1  0
 30 52  1  0
 32 53  1  0
 34 54  1  0
 34 55  1  0
 34 56  1  0
 35 57  1  0
 37 58  1  0
 37 59  1  0
 37 60  1  0
 38 61  1  0
 39 62  1  0
 39 63  1  0
 39 64  1  0
M  END
>  <Name>  (314) 
Neoacrimarine I

>  <PubChem ID>  (314) 
10697534

>  <CDB ID>  (314) 
CDB0314

>  <Smiles>  (314) 
CC1(C(C(C2=C(O1)C=CC3=C2OC(=O)C=C3)OC4=C(C=CC5=C4NC6=C(C5=O)C(=CC(=C6)OC)O)OC)O)C

>  <Chemical class>  (314) 
7-Oxygenated Coumarins

>  <Natural source>  (314) 
Citrus paradisi

>  <Molecular Formula>  (314) 
C29H25NO9

>  <InChI-Key>  (314) 
MHUAXBOYNZWGTG-UHFFFAOYSA-N

>  <Total Molweight>  (314) 
531.516

>  <cLogP>  (314) 
3.9648

>  <cLogS>  (314) 
-6.336

>  <H-Acceptors>  (314) 
10

>  <H-Donors>  (314) 
3

>  <Rotatable Bonds>  (314) 
4

>  <Polar Surface Area>  (314) 
132.78

$$$$
CDB0315
     RDKit          3D

 63 68  0  0  0  0  0  0  0  0999 V2000
   -3.5895    4.0856   -0.9138 C   0  0  0  0  0  0  0  0  0  0  0  0
   -3.4839    2.5686   -1.1494 C   0  0  0  0  0  0  0  0  0  0  0  0
   -2.0562    2.0798   -0.8307 C   0  0  0  0  0  0  0  0  0  0  0  0
   -1.9682    0.5411   -0.9723 C   0  0  0  0  0  0  0  0  0  0  0  0
   -3.1335   -0.1078   -0.2509 C   0  0  0  0  0  0  0  0  0  0  0  0
   -4.2732    0.6470    0.0587 C   0  0  0  0  0  0  0  0  0  0  0  0
   -4.4360    1.9712   -0.2473 O   0  0  0  0  0  0  0  0  0  0  0  0
   -5.3510    0.0761    0.7438 C   0  0  0  0  0  0  0  0  0  0  0  0
   -5.3315   -1.2709    1.1023 C   0  0  0  0  0  0  0  0  0  0  0  0
   -4.2355   -2.0588    0.7600 C   0  0  0  0  0  0  0  0  0  0  0  0
   -3.1613   -1.4739    0.0802 C   0  0  0  0  0  0  0  0  0  0  0  0
   -2.0761   -2.2885   -0.3166 O   0  0  0  0  0  0  0  0  0  0  0  0
   -2.0188   -3.6480   -0.0463 C   0  0  0  0  0  0  0  0  0  0  0  0
   -1.0978   -4.3595   -0.4279 O   0  0  0  0  0  0  0  0  0  0  0  0
   -3.1425   -4.2124    0.7169 C   0  0  0  0  0  0  0  0  0  0  0  0
   -4.1892   -3.4737    1.0952 C   0  0  0  0  0  0  0  0  0  0  0  0
   -0.7029    0.1130   -0.4368 O   0  0  0  0  0  0  0  0  0  0  0  0
    0.2745   -0.3560   -1.2870 C   0  0  0  0  0  0  0  0  0  0  0  0
   -0.0508   -1.0824   -2.4482 C   0  0  0  0  0  0  0  0  0  0  0  0
    0.9365   -1.6535   -3.2488 C   0  0  0  0  0  0  0  0  0  0  0  0
    2.2659   -1.5472   -2.8758 C   0  0  0  0  0  0  0  0  0  0  0  0
    2.6022   -0.8641   -1.7009 C   0  0  0  0  0  0  0  0  0  0  0  0
    1.6345   -0.2250   -0.8918 C   0  0  0  0  0  0  0  0  0  0  0  0
    2.0923    0.4681    0.2599 N   0  0  0  0  0  0  0  0  0  0  0  0
    3.3832    0.2949    0.8060 C   0  0  0  0  0  0  0  0  0  0  0  0
    4.3783   -0.3416    0.0502 C   0  0  0  0  0  0  0  0  0  0  0  0
    4.0228   -0.8463   -1.2891 C   0  0  0  0  0  0  0  0  0  0  0  0
    4.9068   -1.2783   -2.0277 O   0  0  0  0  0  0  0  0  0  0  0  0
    5.6793   -0.4990    0.5511 C   0  0  0  0  0  0  0  0  0  0  0  0
    6.0075   -0.0546    1.8279 C   0  0  0  0  0  0  0  0  0  0  0  0
    5.0301    0.5455    2.6150 C   0  0  0  0  0  0  0  0  0  0  0  0
    3.7341    0.7115    2.1028 C   0  0  0  0  0  0  0  0  0  0  0  0
    5.2014    1.0122    3.8905 O   0  0  0  0  0  0  0  0  0  0  0  0
    6.4930    0.8490    4.4647 C   0  0  0  0  0  0  0  0  0  0  0  0
    6.6879   -1.0907   -0.1650 O   0  0  0  0  0  0  0  0  0  0  0  0
    1.2542    1.5329    0.8142 C   0  0  0  0  0  0  0  0  0  0  0  0
   -1.6832    2.5096    0.4971 O   0  0  0  0  0  0  0  0  0  0  0  0
   -3.9150    2.2809   -2.5969 C   0  0  0  0  0  0  0  0  0  0  0  0
   -4.6000    4.4456   -1.1408 H   0  0  0  0  0  0  0  0  0  0  0  0
   -2.8783    4.6390   -1.5357 H   0  0  0  0  0  0  0  0  0  0  0  0
   -3.4108    4.3425    0.1363 H   0  0  0  0  0  0  0  0  0  0  0  0
   -1.3268    2.5430   -1.5057 H   0  0  0  0  0  0  0  0  0  0  0  0
   -2.0793    0.3071   -2.0340 H   0  0  0  0  0  0  0  0  0  0  0  0
   -6.2162    0.6872    0.9929 H   0  0  0  0  0  0  0  0  0  0  0  0
   -6.1817   -1.6922    1.6330 H   0  0  0  0  0  0  0  0  0  0  0  0
   -3.0735   -5.2686    0.9465 H   0  0  0  0  0  0  0  0  0  0  0  0
   -5.0093   -3.9130    1.6528 H   0  0  0  0  0  0  0  0  0  0  0  0
   -1.0791   -1.2848   -2.7299 H   0  0  0  0  0  0  0  0  0  0  0  0
    0.6630   -2.2206   -4.1351 H   0  0  0  0  0  0  0  0  0  0  0  0
    3.0365   -2.0241   -3.4776 H   0  0  0  0  0  0  0  0  0  0  0  0
    7.0242   -0.2005    2.1752 H   0  0  0  0  0  0  0  0  0  0  0  0
    2.9933    1.1580    2.7612 H   0  0  0  0  0  0  0  0  0  0  0  0
    7.2481    1.4079    3.9021 H   0  0  0  0  0  0  0  0  0  0  0  0
    6.4618    1.2599    5.4784 H   0  0  0  0  0  0  0  0  0  0  0  0
    6.7597   -0.2102    4.5428 H   0  0  0  0  0  0  0  0  0  0  0  0
    6.3235   -1.3210   -1.0509 H   0  0  0  0  0  0  0  0  0  0  0  0
    1.8355    2.3071    1.3282 H   0  0  0  0  0  0  0  0  0  0  0  0
    0.5280    1.1284    1.5262 H   0  0  0  0  0  0  0  0  0  0  0  0
    0.7500    2.0826    0.0139 H   0  0  0  0  0  0  0  0  0  0  0  0
   -2.3336    2.1287    1.1161 H   0  0  0  0  0  0  0  0  0  0  0  0
   -4.0033    1.2093   -2.8003 H   0  0  0  0  0  0  0  0  0  0  0  0
   -4.9092    2.6993   -2.7937 H   0  0  0  0  0  0  0  0  0  0  0  0
   -3.2111    2.7138   -3.3152 H   0  0  0  0  0  0  0  0  0  0  0  0
  1  2  1  0
  2  3  1  0
  3  4  1  0
  4  5  1  0
  5  6  2  0
  6  7  1  0
  6  8  1  0
  8  9  2  0
  9 10  1  0
 10 11  2  0
 11 12  1  0
 12 13  1  0
 13 14  2  0
 13 15  1  0
 15 16  2  0
  4 17  1  0
 17 18  1  0
 18 19  1  0
 19 20  2  0
 20 21  1  0
 21 22  2  0
 22 23  1  0
 23 24  1  0
 24 25  1  0
 25 26  1  0
 26 27  1  0
 27 28  2  0
 26 29  2  0
 29 30  1  0
 30 31  2  0
 31 32  1  0
 31 33  1  0
 33 34  1  0
 29 35  1  0
 24 36  1  0
  3 37  1  0
  2 38  1  0
  7  2  1  0
 11  5  1  0
 16 10  1  0
 23 18  2  0
 27 22  1  0
 32 25  2  0
  1 39  1  0
  1 40  1  0
  1 41  1  0
  3 42  1  0
  4 43  1  0
  8 44  1  0
  9 45  1  0
 15 46  1  0
 16 47  1  0
 19 48  1  0
 20 49  1  0
 21 50  1  0
 30 51  1  0
 32 52  1  0
 34 53  1  0
 34 54  1  0
 34 55  1  0
 35 56  1  0
 36 57  1  0
 36 58  1  0
 36 59  1  0
 37 60  1  0
 38 61  1  0
 38 62  1  0
 38 63  1  0
M  END
>  <Name>  (315) 
Neoacrimarine G

>  <PubChem ID>  (315) 
101712521

>  <CDB ID>  (315) 
CDB0315

>  <Smiles>  (315) 
CC1(C(C(C2=C(O1)C=CC3=C2OC(=O)C=C3)OC4=CC=CC5=C4N(C6=C(C5=O)C(=CC(=C6)OC)O)C)O)C

>  <Chemical class>  (315) 
7-Oxygenated Coumarins

>  <Natural source>  (315) 
Citrus paradisi

>  <Molecular Formula>  (315) 
C29H25NO8

>  <InChI-Key>  (315) 
MNOCITGIWBOSNH-UHFFFAOYSA-N

>  <Total Molweight>  (315) 
515.516

>  <cLogP>  (315) 
4.1009

>  <cLogS>  (315) 
-6.796

>  <H-Acceptors>  (315) 
9

>  <H-Donors>  (315) 
2

>  <Rotatable Bonds>  (315) 
3

>  <Polar Surface Area>  (315) 
114.76

$$$$
CDB0316
     RDKit          3D

 64 69  0  0  0  0  0  0  0  0999 V2000
   -2.9369   -2.2093   -1.8331 C   0  0  0  0  0  0  0  0  0  0  0  0
   -2.1993   -0.9199   -2.2291 C   0  0  0  0  0  0  0  0  0  0  0  0
   -1.1415   -0.4797   -1.1947 C   0  0  0  0  0  0  0  0  0  0  0  0
   -1.8243   -0.1553    0.1556 C   0  0  0  0  0  0  0  0  0  0  0  0
   -2.9998    0.7753   -0.0823 C   0  0  0  0  0  0  0  0  0  0  0  0
   -3.5884    0.8398   -1.3530 C   0  0  0  0  0  0  0  0  0  0  0  0
   -3.1681    0.1267   -2.4433 O   0  0  0  0  0  0  0  0  0  0  0  0
   -4.6701    1.6909   -1.6023 C   0  0  0  0  0  0  0  0  0  0  0  0
   -5.2092    2.4724   -0.5815 C   0  0  0  0  0  0  0  0  0  0  0  0
   -4.6732    2.3956    0.7015 C   0  0  0  0  0  0  0  0  0  0  0  0
   -3.5885    1.5433    0.9375 C   0  0  0  0  0  0  0  0  0  0  0  0
   -3.0750    1.4316    2.2506 O   0  0  0  0  0  0  0  0  0  0  0  0
   -3.5753    2.1741    3.3121 C   0  0  0  0  0  0  0  0  0  0  0  0
   -3.1168    2.0744    4.4428 O   0  0  0  0  0  0  0  0  0  0  0  0
   -4.6964    3.0773    3.0190 C   0  0  0  0  0  0  0  0  0  0  0  0
   -5.2209    3.1834    1.7953 C   0  0  0  0  0  0  0  0  0  0  0  0
   -0.8788    0.4191    1.0922 O   0  0  0  0  0  0  0  0  0  0  0  0
   -0.1185   -0.5463    1.7241 C   0  0  0  0  0  0  0  0  0  0  0  0
   -0.7337   -1.4122    2.6431 C   0  0  0  0  0  0  0  0  0  0  0  0
   -0.0589   -2.5019    3.1704 C   0  0  0  0  0  0  0  0  0  0  0  0
    1.2595   -2.7237    2.7923 C   0  0  0  0  0  0  0  0  0  0  0  0
    1.9047   -1.8206    1.9311 C   0  0  0  0  0  0  0  0  0  0  0  0
    1.2554   -0.6744    1.4333 C   0  0  0  0  0  0  0  0  0  0  0  0
    2.0045    0.2397    0.6665 N   0  0  0  0  0  0  0  0  0  0  0  0
    3.2326   -0.0975    0.0583 C   0  0  0  0  0  0  0  0  0  0  0  0
    3.9123   -1.2683    0.4461 C   0  0  0  0  0  0  0  0  0  0  0  0
    3.3097   -2.0868    1.5362 C   0  0  0  0  0  0  0  0  0  0  0  0
    3.9250   -2.9753    2.1163 O   0  0  0  0  0  0  0  0  0  0  0  0
    5.1254   -1.6167   -0.1703 C   0  0  0  0  0  0  0  0  0  0  0  0
    5.6771   -0.8109   -1.1706 C   0  0  0  0  0  0  0  0  0  0  0  0
    5.0133    0.3442   -1.5711 C   0  0  0  0  0  0  0  0  0  0  0  0
    3.8009    0.6861   -0.9622 C   0  0  0  0  0  0  0  0  0  0  0  0
    5.4274    1.2155   -2.5413 O   0  0  0  0  0  0  0  0  0  0  0  0
    6.6489    0.9160   -3.2049 C   0  0  0  0  0  0  0  0  0  0  0  0
    5.7825   -2.7659    0.1728 O   0  0  0  0  0  0  0  0  0  0  0  0
    1.6189    1.6547    0.6896 C   0  0  0  0  0  0  0  0  0  0  0  0
   -2.0194   -1.2091    3.0599 O   0  0  0  0  0  0  0  0  0  0  0  0
   -0.4185    0.6611   -1.7013 O   0  0  0  0  0  0  0  0  0  0  0  0
   -1.5348   -1.1527   -3.5975 C   0  0  0  0  0  0  0  0  0  0  0  0
   -3.6219   -2.5223   -2.6301 H   0  0  0  0  0  0  0  0  0  0  0  0
   -2.2345   -3.0272   -1.6425 H   0  0  0  0  0  0  0  0  0  0  0  0
   -3.5639   -2.0749   -0.9464 H   0  0  0  0  0  0  0  0  0  0  0  0
   -0.3950   -1.2690   -1.0525 H   0  0  0  0  0  0  0  0  0  0  0  0
   -2.2573   -1.0757    0.5649 H   0  0  0  0  0  0  0  0  0  0  0  0
   -5.0992    1.7385   -2.6012 H   0  0  0  0  0  0  0  0  0  0  0  0
   -6.0513    3.1244   -0.8002 H   0  0  0  0  0  0  0  0  0  0  0  0
   -5.0766    3.6483    3.8573 H   0  0  0  0  0  0  0  0  0  0  0  0
   -6.0519    3.8531    1.6008 H   0  0  0  0  0  0  0  0  0  0  0  0
   -0.5540   -3.1730    3.8660 H   0  0  0  0  0  0  0  0  0  0  0  0
    1.7948   -3.5882    3.1803 H   0  0  0  0  0  0  0  0  0  0  0  0
    6.6109   -1.1067   -1.6336 H   0  0  0  0  0  0  0  0  0  0  0  0
    3.2881    1.5743   -1.3234 H   0  0  0  0  0  0  0  0  0  0  0  0
    6.5819   -0.0347   -3.7441 H   0  0  0  0  0  0  0  0  0  0  0  0
    6.8315    1.7044   -3.9414 H   0  0  0  0  0  0  0  0  0  0  0  0
    7.4892    0.9147   -2.5028 H   0  0  0  0  0  0  0  0  0  0  0  0
    6.6626   -2.7907   -0.2316 H   0  0  0  0  0  0  0  0  0  0  0  0
    1.0041    1.9114    1.5597 H   0  0  0  0  0  0  0  0  0  0  0  0
    2.4996    2.3033    0.7807 H   0  0  0  0  0  0  0  0  0  0  0  0
    1.0836    1.9382   -0.2193 H   0  0  0  0  0  0  0  0  0  0  0  0
   -2.1934   -0.2538    2.9468 H   0  0  0  0  0  0  0  0  0  0  0  0
   -1.0769    1.3294   -1.9643 H   0  0  0  0  0  0  0  0  0  0  0  0
   -2.2755   -1.4684   -4.3418 H   0  0  0  0  0  0  0  0  0  0  0  0
   -0.7551   -1.9193   -3.5398 H   0  0  0  0  0  0  0  0  0  0  0  0
   -1.0914   -0.2311   -3.9909 H   0  0  0  0  0  0  0  0  0  0  0  0
  1  2  1  0
  2  3  1  0
  3  4  1  0
  4  5  1  0
  5  6  2  0
  6  7  1  0
  6  8  1  0
  8  9  2  0
  9 10  1  0
 10 11  2  0
 11 12  1  0
 12 13  1  0
 13 14  2  0
 13 15  1  0
 15 16  2  0
  4 17  1  0
 17 18  1  0
 18 19  2  0
 19 20  1  0
 20 21  2  0
 21 22  1  0
 22 23  2  0
 23 24  1  0
 24 25  1  0
 25 26  1  0
 26 27  1  0
 27 28  2  0
 26 29  2  0
 29 30  1  0
 30 31  2  0
 31 32  1  0
 31 33  1  0
 33 34  1  0
 29 35  1  0
 24 36  1  0
 19 37  1  0
  3 38  1  0
  2 39  1  0
  7  2  1  0
 11  5  1  0
 16 10  1  0
 23 18  1  0
 27 22  1  0
 32 25  2  0
  1 40  1  0
  1 41  1  0
  1 42  1  0
  3 43  1  0
  4 44  1  0
  8 45  1  0
  9 46  1  0
 15 47  1  0
 16 48  1  0
 20 49  1  0
 21 50  1  0
 30 51  1  0
 32 52  1  0
 34 53  1  0
 34 54  1  0
 34 55  1  0
 35 56  1  0
 36 57  1  0
 36 58  1  0
 36 59  1  0
 37 60  1  0
 38 61  1  0
 39 62  1  0
 39 63  1  0
 39 64  1  0
M  END
>  <Name>  (316) 
Neoacrimarine F

>  <PubChem ID>  (316) 
101712520

>  <CDB ID>  (316) 
CDB0316

>  <Smiles>  (316) 
CC1(C(C(C2=C(O1)C=CC3=C2OC(=O)C=C3)OC4=C(C=CC5=C4N(C6=C(C5=O)C(=CC(=C6)OC)O)C)O)O)C

>  <Chemical class>  (316) 
7-Oxygenated Coumarins

>  <Natural source>  (316) 
Citrus paradisi x C. tangerina

>  <Molecular Formula>  (316) 
C29H25NO9

>  <InChI-Key>  (316) 
VMABFFUJXPHEJX-UHFFFAOYSA-N

>  <Total Molweight>  (316) 
531.516

>  <cLogP>  (316) 
3.7552

>  <cLogS>  (316) 
-6.5

>  <H-Acceptors>  (316) 
10

>  <H-Donors>  (316) 
3

>  <Rotatable Bonds>  (316) 
3

>  <Polar Surface Area>  (316) 
134.99

$$$$
CDB0317
     RDKit          3D

 71 77  0  0  0  0  0  0  0  0999 V2000
    5.8341   -1.8300    2.7012 C   0  0  0  0  0  0  0  0  0  0  0  0
    4.9247   -0.6564    2.3154 C   0  0  0  0  0  0  0  0  0  0  0  0
    3.5097   -1.1543    2.1605 C   0  0  0  0  0  0  0  0  0  0  0  0
    2.7251   -0.7784    1.1462 C   0  0  0  0  0  0  0  0  0  0  0  0
    3.2449    0.1778    0.1649 C   0  0  0  0  0  0  0  0  0  0  0  0
    4.6340    0.4015    0.1675 C   0  0  0  0  0  0  0  0  0  0  0  0
    5.4896   -0.1116    1.1067 O   0  0  0  0  0  0  0  0  0  0  0  0
    5.2426    1.1450   -0.8409 C   0  0  0  0  0  0  0  0  0  0  0  0
    4.4722    1.6620   -1.8705 C   0  0  0  0  0  0  0  0  0  0  0  0
    3.0838    1.4715   -1.8779 C   0  0  0  0  0  0  0  0  0  0  0  0
    2.4344    0.7851   -0.8300 C   0  0  0  0  0  0  0  0  0  0  0  0
    1.0167    0.7294   -0.8396 N   0  0  0  0  0  0  0  0  0  0  0  0
    0.2378    0.9546   -2.0071 C   0  0  0  0  0  0  0  0  0  0  0  0
    0.8468    1.5949   -3.1021 C   0  0  0  0  0  0  0  0  0  0  0  0
    2.2716    1.9745   -3.0080 C   0  0  0  0  0  0  0  0  0  0  0  0
    2.7997    2.6676   -3.8761 O   0  0  0  0  0  0  0  0  0  0  0  0
    0.1396    1.8865   -4.2729 C   0  0  0  0  0  0  0  0  0  0  0  0
   -1.1914    1.5069   -4.3811 C   0  0  0  0  0  0  0  0  0  0  0  0
   -1.8113    0.8341   -3.3270 C   0  0  0  0  0  0  0  0  0  0  0  0
   -1.1171    0.5569   -2.1412 C   0  0  0  0  0  0  0  0  0  0  0  0
   -1.6497   -0.1569   -1.0999 O   0  0  0  0  0  0  0  0  0  0  0  0
   -3.0635   -0.3476   -0.9814 C   0  0  0  0  0  0  0  0  0  0  0  0
   -3.5055   -1.7530   -1.4377 C   0  0  0  0  0  0  0  0  0  0  0  0
   -2.9969   -2.8467   -0.4641 C   0  0  0  0  0  0  0  0  0  0  0  0
   -3.4446   -2.6067    0.8854 O   0  0  0  0  0  0  0  0  0  0  0  0
   -3.5240   -1.3107    1.3107 C   0  0  0  0  0  0  0  0  0  0  0  0
   -3.3769   -0.1934    0.4859 C   0  0  0  0  0  0  0  0  0  0  0  0
   -3.4961    1.0772    1.0719 C   0  0  0  0  0  0  0  0  0  0  0  0
   -3.7587    1.2481    2.4324 C   0  0  0  0  0  0  0  0  0  0  0  0
   -3.9119    0.1203    3.2359 C   0  0  0  0  0  0  0  0  0  0  0  0
   -3.7976   -1.1530    2.6733 C   0  0  0  0  0  0  0  0  0  0  0  0
   -3.8635    2.5929    2.9751 C   0  0  0  0  0  0  0  0  0  0  0  0
   -3.7116    3.6466    2.1676 C   0  0  0  0  0  0  0  0  0  0  0  0
   -3.4411    3.5038    0.7278 C   0  0  0  0  0  0  0  0  0  0  0  0
   -3.3141    4.4892    0.0116 O   0  0  0  0  0  0  0  0  0  0  0  0
   -3.3424    2.2092    0.2380 O   0  0  0  0  0  0  0  0  0  0  0  0
   -3.6197   -4.2025   -0.8518 C   0  0  0  0  0  0  0  0  0  0  0  0
   -1.4715   -3.0327   -0.4479 C   0  0  0  0  0  0  0  0  0  0  0  0
   -3.1340   -1.9962   -2.7980 O   0  0  0  0  0  0  0  0  0  0  0  0
    0.3387    1.0228    0.4328 C   0  0  0  0  0  0  0  0  0  0  0  0
    5.1407    2.3485   -2.8492 O   0  0  0  0  0  0  0  0  0  0  0  0
    4.9919    0.4237    3.4011 C   0  0  0  0  0  0  0  0  0  0  0  0
    5.8307   -2.6006    1.9208 H   0  0  0  0  0  0  0  0  0  0  0  0
    5.5276   -2.2946    3.6449 H   0  0  0  0  0  0  0  0  0  0  0  0
    6.8748   -1.5001    2.8030 H   0  0  0  0  0  0  0  0  0  0  0  0
    3.1265   -1.8489    2.9027 H   0  0  0  0  0  0  0  0  0  0  0  0
    1.7305   -1.1888    1.0239 H   0  0  0  0  0  0  0  0  0  0  0  0
    6.3182    1.2965   -0.8368 H   0  0  0  0  0  0  0  0  0  0  0  0
    0.6280    2.3956   -5.1006 H   0  0  0  0  0  0  0  0  0  0  0  0
   -1.7438    1.7133   -5.2946 H   0  0  0  0  0  0  0  0  0  0  0  0
   -2.8341    0.5069   -3.4819 H   0  0  0  0  0  0  0  0  0  0  0  0
   -3.6300    0.4068   -1.5392 H   0  0  0  0  0  0  0  0  0  0  0  0
   -4.6051   -1.7588   -1.4115 H   0  0  0  0  0  0  0  0  0  0  0  0
   -4.1198    0.2136    4.2990 H   0  0  0  0  0  0  0  0  0  0  0  0
   -3.9177   -2.0325    3.3025 H   0  0  0  0  0  0  0  0  0  0  0  0
   -4.0641    2.7233    4.0330 H   0  0  0  0  0  0  0  0  0  0  0  0
   -3.7829    4.6633    2.5346 H   0  0  0  0  0  0  0  0  0  0  0  0
   -3.3836   -4.9689   -0.1037 H   0  0  0  0  0  0  0  0  0  0  0  0
   -3.2667   -4.5578   -1.8249 H   0  0  0  0  0  0  0  0  0  0  0  0
   -4.7134   -4.1337   -0.8808 H   0  0  0  0  0  0  0  0  0  0  0  0
   -0.9594   -2.2010    0.0439 H   0  0  0  0  0  0  0  0  0  0  0  0
   -1.0654   -3.1541   -1.4569 H   0  0  0  0  0  0  0  0  0  0  0  0
   -1.1980   -3.9194    0.1370 H   0  0  0  0  0  0  0  0  0  0  0  0
   -3.5676   -2.8141   -3.0943 H   0  0  0  0  0  0  0  0  0  0  0  0
   -0.1286    0.1245    0.8476 H   0  0  0  0  0  0  0  0  0  0  0  0
    1.0227    1.4258    1.1895 H   0  0  0  0  0  0  0  0  0  0  0  0
   -0.4299    1.7959    0.3104 H   0  0  0  0  0  0  0  0  0  0  0  0
    4.4720    2.6703   -3.4967 H   0  0  0  0  0  0  0  0  0  0  0  0
    4.6431    0.0505    4.3702 H   0  0  0  0  0  0  0  0  0  0  0  0
    6.0175    0.7920    3.5208 H   0  0  0  0  0  0  0  0  0  0  0  0
    4.3826    1.2943    3.1304 H   0  0  0  0  0  0  0  0  0  0  0  0
  1  2  1  0
  2  3  1  0
  3  4  2  0
  4  5  1  0
  5  6  2  0
  6  7  1  0
  6  8  1  0
  8  9  2  0
  9 10  1  0
 10 11  2  0
 11 12  1  0
 12 13  1  0
 13 14  1  0
 14 15  1  0
 15 16  2  0
 14 17  2  0
 17 18  1  0
 18 19  2  0
 19 20  1  0
 20 21  1  0
 21 22  1  0
 22 23  1  0
 23 24  1  0
 24 25  1  0
 25 26  1  0
 26 27  2  0
 27 28  1  0
 28 29  2  0
 29 30  1  0
 30 31  2  0
 29 32  1  0
 32 33  2  0
 33 34  1  0
 34 35  2  0
 34 36  1  0
 24 37  1  0
 24 38  1  0
 23 39  1  0
 12 40  1  0
  9 41  1  0
  2 42  1  0
  7  2  1  0
 11  5  1  0
 15 10  1  0
 20 13  2  0
 27 22  1  0
 31 26  1  0
 36 28  1  0
  1 43  1  0
  1 44  1  0
  1 45  1  0
  3 46  1  0
  4 47  1  0
  8 48  1  0
 17 49  1  0
 18 50  1  0
 19 51  1  0
 22 52  1  0
 23 53  1  0
 30 54  1  0
 31 55  1  0
 32 56  1  0
 33 57  1  0
 37 58  1  0
 37 59  1  0
 37 60  1  0
 38 61  1  0
 38 62  1  0
 38 63  1  0
 39 64  1  0
 40 65  1  0
 40 66  1  0
 40 67  1  0
 41 68  1  0
 42 69  1  0
 42 70  1  0
 42 71  1  0
M  END
>  <Name>  (317) 
Neoacrimarine H

>  <PubChem ID>  (317) 
10507216

>  <CDB ID>  (317) 
CDB0317

>  <Smiles>  (317) 
CC1(C=CC2=C(O1)C=C(C3=C2N(C4=C(C3=O)C=CC=C4OC5C(C(OC6=C5C7=C(C=C6)C=CC(=O)O7)(C)C)O)C)O)C

>  <Chemical class>  (317) 
7-Oxygenated Coumarins

>  <Natural source>  (317) 
Citrus paradisi

>  <Molecular Formula>  (317) 
C33H29NO8

>  <InChI-Key>  (317) 
KYDGDSAPWLVOME-UHFFFAOYSA-N

>  <Total Molweight>  (317) 
567.592

>  <cLogP>  (317) 
5.1976

>  <cLogS>  (317) 
-8.037

>  <H-Acceptors>  (317) 
9

>  <H-Donors>  (317) 
2

>  <Rotatable Bonds>  (317) 
2

>  <Polar Surface Area>  (317) 
114.76

$$$$
CDB0318
     RDKit          3D

 72 78  0  0  0  0  0  0  0  0999 V2000
    5.5953    2.1492   -0.6992 C   0  0  0  0  0  0  0  0  0  0  0  0
    5.0488    0.7165   -0.7328 C   0  0  0  0  0  0  0  0  0  0  0  0
    3.9509    0.5818    0.2936 C   0  0  0  0  0  0  0  0  0  0  0  0
    2.7431    0.0897    0.0064 C   0  0  0  0  0  0  0  0  0  0  0  0
    2.4739   -0.3513   -1.3600 C   0  0  0  0  0  0  0  0  0  0  0  0
    3.4368   -0.0990   -2.3436 C   0  0  0  0  0  0  0  0  0  0  0  0
    4.6532    0.4787   -2.0986 O   0  0  0  0  0  0  0  0  0  0  0  0
    3.1912   -0.4200   -3.6799 C   0  0  0  0  0  0  0  0  0  0  0  0
    1.9739   -0.9871   -4.0441 C   0  0  0  0  0  0  0  0  0  0  0  0
    0.9904   -1.2459   -3.0878 C   0  0  0  0  0  0  0  0  0  0  0  0
    1.2552   -0.9671   -1.7289 C   0  0  0  0  0  0  0  0  0  0  0  0
    0.2566   -1.3151   -0.7655 N   0  0  0  0  0  0  0  0  0  0  0  0
   -1.1220   -1.3118   -1.1222 C   0  0  0  0  0  0  0  0  0  0  0  0
   -1.4445   -1.5797   -2.4733 C   0  0  0  0  0  0  0  0  0  0  0  0
   -0.3353   -1.8627   -3.4664 C   0  0  0  0  0  0  0  0  0  0  0  0
   -2.7778   -1.5917   -2.8942 C   0  0  0  0  0  0  0  0  0  0  0  0
   -3.7913   -1.2712   -1.9996 C   0  0  0  0  0  0  0  0  0  0  0  0
   -3.4734   -0.9343   -0.6836 C   0  0  0  0  0  0  0  0  0  0  0  0
   -2.1479   -0.9546   -0.2070 C   0  0  0  0  0  0  0  0  0  0  0  0
   -1.8121   -0.4943    1.2217 C   0  0  0  0  0  0  0  0  0  0  0  0
   -2.4917   -1.4173    2.2708 C   0  0  0  0  0  0  0  0  0  0  0  0
   -2.3224   -0.8412    3.6928 C   0  0  0  0  0  0  0  0  0  0  0  0
   -2.9093    0.4676    3.7859 O   0  0  0  0  0  0  0  0  0  0  0  0
   -2.6369    1.3377    2.7660 C   0  0  0  0  0  0  0  0  0  0  0  0
   -2.0992    0.9723    1.5241 C   0  0  0  0  0  0  0  0  0  0  0  0
   -1.7867    2.0199    0.6344 C   0  0  0  0  0  0  0  0  0  0  0  0
   -2.0658    3.3610    0.9255 C   0  0  0  0  0  0  0  0  0  0  0  0
   -2.6573    3.6835    2.1437 C   0  0  0  0  0  0  0  0  0  0  0  0
   -2.9353    2.6731    3.0612 C   0  0  0  0  0  0  0  0  0  0  0  0
   -1.7309    4.3946   -0.0419 C   0  0  0  0  0  0  0  0  0  0  0  0
   -1.1590    4.0591   -1.2010 C   0  0  0  0  0  0  0  0  0  0  0  0
   -0.8454    2.6644   -1.5493 C   0  0  0  0  0  0  0  0  0  0  0  0
   -0.3440    2.3954   -2.6346 O   0  0  0  0  0  0  0  0  0  0  0  0
   -1.1518    1.7091   -0.5928 O   0  0  0  0  0  0  0  0  0  0  0  0
   -0.8611   -0.7855    4.1730 C   0  0  0  0  0  0  0  0  0  0  0  0
   -3.1067   -1.7105    4.6935 C   0  0  0  0  0  0  0  0  0  0  0  0
   -1.9707   -2.7540    2.2097 O   0  0  0  0  0  0  0  0  0  0  0  0
   -4.4844   -0.5483    0.1537 O   0  0  0  0  0  0  0  0  0  0  0  0
    0.6512   -2.5417   -0.0515 C   0  0  0  0  0  0  0  0  0  0  0  0
    1.7301   -1.3079   -5.3505 O   0  0  0  0  0  0  0  0  0  0  0  0
    6.1755   -0.2725   -0.4125 C   0  0  0  0  0  0  0  0  0  0  0  0
    6.3974    2.2786   -1.4354 H   0  0  0  0  0  0  0  0  0  0  0  0
    4.8138    2.8713   -0.9654 H   0  0  0  0  0  0  0  0  0  0  0  0
    5.9888    2.4165    0.2878 H   0  0  0  0  0  0  0  0  0  0  0  0
    4.1632    0.9026    1.3097 H   0  0  0  0  0  0  0  0  0  0  0  0
    1.9600    0.0219    0.7524 H   0  0  0  0  0  0  0  0  0  0  0  0
    3.9582   -0.2126   -4.4190 H   0  0  0  0  0  0  0  0  0  0  0  0
   -0.6453   -1.4666   -4.4414 H   0  0  0  0  0  0  0  0  0  0  0  0
   -0.2112   -2.9485   -3.5571 H   0  0  0  0  0  0  0  0  0  0  0  0
   -3.0241   -1.8196   -3.9285 H   0  0  0  0  0  0  0  0  0  0  0  0
   -4.8186   -1.2625   -2.3510 H   0  0  0  0  0  0  0  0  0  0  0  0
   -0.7313   -0.5994    1.3669 H   0  0  0  0  0  0  0  0  0  0  0  0
   -3.5679   -1.4949    2.0843 H   0  0  0  0  0  0  0  0  0  0  0  0
   -2.8902    4.7134    2.4004 H   0  0  0  0  0  0  0  0  0  0  0  0
   -3.3723    2.9244    4.0250 H   0  0  0  0  0  0  0  0  0  0  0  0
   -1.9521    5.4300    0.1920 H   0  0  0  0  0  0  0  0  0  0  0  0
   -0.8975    4.7995   -1.9465 H   0  0  0  0  0  0  0  0  0  0  0  0
   -0.3932   -1.7751    4.1628 H   0  0  0  0  0  0  0  0  0  0  0  0
   -0.2504   -0.1117    3.5639 H   0  0  0  0  0  0  0  0  0  0  0  0
   -0.8077   -0.3911    5.1947 H   0  0  0  0  0  0  0  0  0  0  0  0
   -4.1675   -1.7563    4.4208 H   0  0  0  0  0  0  0  0  0  0  0  0
   -2.7175   -2.7324    4.7457 H   0  0  0  0  0  0  0  0  0  0  0  0
   -3.0693   -1.2765    5.6997 H   0  0  0  0  0  0  0  0  0  0  0  0
   -2.2686   -3.1163    1.3549 H   0  0  0  0  0  0  0  0  0  0  0  0
   -5.2887   -0.3990   -0.3705 H   0  0  0  0  0  0  0  0  0  0  0  0
    1.6754   -2.4846    0.3337 H   0  0  0  0  0  0  0  0  0  0  0  0
    0.5894   -3.4182   -0.7092 H   0  0  0  0  0  0  0  0  0  0  0  0
    0.0164   -2.7300    0.8145 H   0  0  0  0  0  0  0  0  0  0  0  0
    2.4503   -0.9475   -5.8940 H   0  0  0  0  0  0  0  0  0  0  0  0
    5.8178   -1.3073   -0.4755 H   0  0  0  0  0  0  0  0  0  0  0  0
    6.9907   -0.1843   -1.1402 H   0  0  0  0  0  0  0  0  0  0  0  0
    6.5889   -0.1128    0.5894 H   0  0  0  0  0  0  0  0  0  0  0  0
  1  2  1  0
  2  3  1  0
  3  4  2  0
  4  5  1  0
  5  6  1  0
  6  7  1  0
  6  8  2  0
  8  9  1  0
  9 10  2  0
 10 11  1  0
 11 12  1  0
 12 13  1  0
 13 14  2  0
 14 15  1  0
 14 16  1  0
 16 17  2  0
 17 18  1  0
 18 19  2  0
 19 20  1  0
 20 21  1  0
 21 22  1  0
 22 23  1  0
 23 24  1  0
 24 25  2  0
 25 26  1  0
 26 27  2  0
 27 28  1  0
 28 29  2  0
 27 30  1  0
 30 31  2  0
 31 32  1  0
 32 33  2  0
 32 34  1  0
 22 35  1  0
 22 36  1  0
 21 37  1  0
 18 38  1  0
 12 39  1  0
  9 40  1  0
  2 41  1  0
  7  2  1  0
 11  5  2  0
 15 10  1  0
 19 13  1  0
 25 20  1  0
 29 24  1  0
 34 26  1  0
  1 42  1  0
  1 43  1  0
  1 44  1  0
  3 45  1  0
  4 46  1  0
  8 47  1  0
 15 48  1  0
 15 49  1  0
 16 50  1  0
 17 51  1  0
 20 52  1  0
 21 53  1  0
 28 54  1  0
 29 55  1  0
 30 56  1  0
 31 57  1  0
 35 58  1  0
 35 59  1  0
 35 60  1  0
 36 61  1  0
 36 62  1  0
 36 63  1  0
 37 64  1  0
 38 65  1  0
 39 66  1  0
 39 67  1  0
 39 68  1  0
 40 69  1  0
 41 70  1  0
 41 71  1  0
 41 72  1  0
M  END
>  <Name>  (318) 
Neoacrimarine C

>  <PubChem ID>  (318) 
101696940

>  <CDB ID>  (318) 
CDB0318

>  <Smiles>  (318) 
CC1(C=CC2=C(O1)C=C(C3=C2N(C4=C(C3)C=CC(=C4C5C(C(OC6=C5C7=C(C=C6)C=CC(=O)O7)(C)C)O)O)C)O)C

>  <Chemical class>  (318) 
7-Oxygenated Coumarins

>  <Natural source>  (318) 
Citrus hassaku

>  <Molecular Formula>  (318) 
C33H31NO7

>  <InChI-Key>  (318) 
PRNXRICNFQLLPG-UHFFFAOYSA-N

>  <Total Molweight>  (318) 
553.609

>  <cLogP>  (318) 
5.0783

>  <cLogS>  (318) 
-7.592

>  <H-Acceptors>  (318) 
8

>  <H-Donors>  (318) 
3

>  <Rotatable Bonds>  (318) 
1

>  <Polar Surface Area>  (318) 
108.69

$$$$
CDB0319
     RDKit          3D

 49 51  0  0  0  0  0  0  0  0999 V2000
    5.2311   -0.3112    0.1992 C   0  0  0  0  0  0  0  0  0  0  0  0
    3.9836    0.3692    0.7555 C   0  0  0  0  0  0  0  0  0  0  0  0
    3.9216    1.8232    0.2899 C   0  0  0  0  0  0  0  0  0  0  0  0
    2.7611   -0.4567    0.3857 C   0  0  0  0  0  0  0  0  0  0  0  0
    2.6004   -1.6192    0.7387 O   0  0  0  0  0  0  0  0  0  0  0  0
    1.8880    0.2275   -0.4035 O   0  0  0  0  0  0  0  0  0  0  0  0
    0.6762   -0.4757   -0.7440 C   0  0  0  0  0  0  0  0  0  0  0  0
   -0.3888   -0.3316    0.3584 C   0  0  0  0  0  0  0  0  0  0  0  0
   -1.7066   -0.8587   -0.1447 C   0  0  0  0  0  0  0  0  0  0  0  0
   -1.9471   -1.0094   -1.5130 C   0  0  0  0  0  0  0  0  0  0  0  0
   -3.1695   -1.5156   -1.9661 C   0  0  0  0  0  0  0  0  0  0  0  0
   -4.1788   -1.8562   -1.0628 C   0  0  0  0  0  0  0  0  0  0  0  0
   -3.9692   -1.6889    0.3047 C   0  0  0  0  0  0  0  0  0  0  0  0
   -2.7406   -1.1920    0.7446 C   0  0  0  0  0  0  0  0  0  0  0  0
   -2.5124   -1.0023    2.1275 O   0  0  0  0  0  0  0  0  0  0  0  0
   -3.4852   -1.2803    3.0776 C   0  0  0  0  0  0  0  0  0  0  0  0
   -3.3104   -1.0871    4.2747 O   0  0  0  0  0  0  0  0  0  0  0  0
   -4.7598   -1.8235    2.5805 C   0  0  0  0  0  0  0  0  0  0  0  0
   -4.9959   -2.0185    1.2800 C   0  0  0  0  0  0  0  0  0  0  0  0
   -1.0468   -0.7081   -2.4970 O   0  0  0  0  0  0  0  0  0  0  0  0
    0.1414    0.0107   -2.1107 C   0  0  0  0  0  0  0  0  0  0  0  0
    1.1861   -0.3161   -3.1961 C   0  0  0  0  0  0  0  0  0  0  0  0
   -0.1476    1.5186   -2.1913 C   0  0  0  0  0  0  0  0  0  0  0  0
   -0.6210    1.0458    0.7176 O   0  0  0  0  0  0  0  0  0  0  0  0
    0.1132    1.5431    1.7456 C   0  0  0  0  0  0  0  0  0  0  0  0
    0.9912    0.9499    2.3537 O   0  0  0  0  0  0  0  0  0  0  0  0
   -0.2941    2.9577    2.0212 C   0  0  0  0  0  0  0  0  0  0  0  0
    5.3204   -1.3365    0.5744 H   0  0  0  0  0  0  0  0  0  0  0  0
    5.1983   -0.3635   -0.8948 H   0  0  0  0  0  0  0  0  0  0  0  0
    6.1366    0.2316    0.4898 H   0  0  0  0  0  0  0  0  0  0  0  0
    4.0308    0.3752    1.8515 H   0  0  0  0  0  0  0  0  0  0  0  0
    3.0371    2.3282    0.6926 H   0  0  0  0  0  0  0  0  0  0  0  0
    3.8786    1.8940   -0.8027 H   0  0  0  0  0  0  0  0  0  0  0  0
    4.8038    2.3766    0.6290 H   0  0  0  0  0  0  0  0  0  0  0  0
    0.8873   -1.5498   -0.8612 H   0  0  0  0  0  0  0  0  0  0  0  0
   -0.0762   -0.9082    1.2384 H   0  0  0  0  0  0  0  0  0  0  0  0
   -3.3375   -1.6398   -3.0338 H   0  0  0  0  0  0  0  0  0  0  0  0
   -5.1212   -2.2436   -1.4419 H   0  0  0  0  0  0  0  0  0  0  0  0
   -5.5002   -2.0539    3.3369 H   0  0  0  0  0  0  0  0  0  0  0  0
   -5.9438   -2.4185    0.9370 H   0  0  0  0  0  0  0  0  0  0  0  0
    2.1243    0.2265   -3.0406 H   0  0  0  0  0  0  0  0  0  0  0  0
    1.4049   -1.3901   -3.2144 H   0  0  0  0  0  0  0  0  0  0  0  0
    0.8051   -0.0668   -4.1936 H   0  0  0  0  0  0  0  0  0  0  0  0
   -0.3993    1.8068   -3.2192 H   0  0  0  0  0  0  0  0  0  0  0  0
   -1.0182    1.8043   -1.5939 H   0  0  0  0  0  0  0  0  0  0  0  0
    0.7117    2.1168   -1.8724 H   0  0  0  0  0  0  0  0  0  0  0  0
   -1.3587    2.9963    2.2660 H   0  0  0  0  0  0  0  0  0  0  0  0
    0.2720    3.3380    2.8763 H   0  0  0  0  0  0  0  0  0  0  0  0
   -0.0758    3.5813    1.1507 H   0  0  0  0  0  0  0  0  0  0  0  0
  1  2  1  0
  2  3  1  0
  2  4  1  0
  4  5  2  0
  4  6  1  0
  6  7  1  0
  7  8  1  0
  8  9  1  0
  9 10  2  0
 10 11  1  0
 11 12  2  0
 12 13  1  0
 13 14  2  0
 14 15  1  0
 15 16  1  0
 16 17  2  0
 16 18  1  0
 18 19  2  0
 10 20  1  0
 20 21  1  0
 21 22  1  0
 21 23  1  0
  8 24  1  0
 24 25  1  0
 25 26  2  0
 25 27  1  0
 21  7  1  0
 14  9  1  0
 19 13  1  0
  1 28  1  0
  1 29  1  0
  1 30  1  0
  2 31  1  0
  3 32  1  0
  3 33  1  0
  3 34  1  0
  7 35  1  0
  8 36  1  0
 11 37  1  0
 12 38  1  0
 18 39  1  0
 19 40  1  0
 22 41  1  0
 22 42  1  0
 22 43  1  0
 23 44  1  0
 23 45  1  0
 23 46  1  0
 27 47  1  0
 27 48  1  0
 27 49  1  0
M  END
>  <Name>  (319) 
Bocconin

>  <PubChem ID>  (319) 
12048031

>  <CDB ID>  (319) 
CDB0319

>  <Smiles>  (319) 
CC(C)C(=O)OC1C(C2=C(C=CC3=C2OC(=O)C=C3)OC1(C)C)OC(=O)C

>  <Chemical class>  (319) 
7-Oxygenated Coumarins

>  <Natural source>  (319) 
Seseli bocconi

>  <Molecular Formula>  (319) 
C20H22O7

>  <InChI-Key>  (319) 
RBYMMRNOMSMIHJ-UHFFFAOYSA-N

>  <Total Molweight>  (319) 
374.388

>  <cLogP>  (319) 
2.7517

>  <cLogS>  (319) 
-3.797

>  <H-Acceptors>  (319) 
7

>  <H-Donors>  (319) 
0

>  <Rotatable Bonds>  (319) 
5

>  <Polar Surface Area>  (319) 
88.13

$$$$
CDB0320
     RDKit          3D

 51 54  0  0  0  0  0  0  0  0999 V2000
    4.0636   -2.3336    2.2989 C   0  0  0  0  0  0  0  0  0  0  0  0
    2.9797   -1.8218    1.4199 C   0  0  0  0  0  0  0  0  0  0  0  0
    3.0559   -0.4917    0.6767 C   0  0  0  0  0  0  0  0  0  0  0  0
    2.3120   -0.6545    1.9047 O   0  0  0  0  0  0  0  0  0  0  0  0
    4.2598    0.3888    0.8158 C   0  0  0  0  0  0  0  0  0  0  0  0
    2.2232   -0.3640   -0.5483 C   0  0  0  0  0  0  0  0  0  0  0  0
    2.3973   -1.0830   -1.5210 O   0  0  0  0  0  0  0  0  0  0  0  0
    1.3126    0.6339   -0.4388 O   0  0  0  0  0  0  0  0  0  0  0  0
    0.3970    0.8332   -1.5537 C   0  0  0  0  0  0  0  0  0  0  0  0
   -0.9017    0.0423   -1.3078 C   0  0  0  0  0  0  0  0  0  0  0  0
   -1.6857    0.6650   -0.1761 C   0  0  0  0  0  0  0  0  0  0  0  0
   -1.4718    2.0066    0.1602 C   0  0  0  0  0  0  0  0  0  0  0  0
   -2.1859    2.6024    1.2050 C   0  0  0  0  0  0  0  0  0  0  0  0
   -3.1486    1.8808    1.9121 C   0  0  0  0  0  0  0  0  0  0  0  0
   -3.4118    0.5573    1.5662 C   0  0  0  0  0  0  0  0  0  0  0  0
   -2.6880   -0.0284    0.5233 C   0  0  0  0  0  0  0  0  0  0  0  0
   -2.9804   -1.3583    0.1384 O   0  0  0  0  0  0  0  0  0  0  0  0
   -3.9256   -2.1320    0.7945 C   0  0  0  0  0  0  0  0  0  0  0  0
   -4.1570   -3.2934    0.4797 O   0  0  0  0  0  0  0  0  0  0  0  0
   -4.6546   -1.4870    1.8977 C   0  0  0  0  0  0  0  0  0  0  0  0
   -4.4216   -0.2234    2.2641 C   0  0  0  0  0  0  0  0  0  0  0  0
   -0.5814    2.8342   -0.4678 O   0  0  0  0  0  0  0  0  0  0  0  0
    0.0775    2.3411   -1.6511 C   0  0  0  0  0  0  0  0  0  0  0  0
   -0.7952    2.6840   -2.8704 C   0  0  0  0  0  0  0  0  0  0  0  0
    1.3836    3.1487   -1.7592 C   0  0  0  0  0  0  0  0  0  0  0  0
   -0.5863   -1.3330   -1.0266 O   0  0  0  0  0  0  0  0  0  0  0  0
   -0.4405   -2.1204   -2.1272 C   0  0  0  0  0  0  0  0  0  0  0  0
   -0.5452   -1.7392   -3.2850 O   0  0  0  0  0  0  0  0  0  0  0  0
   -0.1448   -3.5293   -1.7161 C   0  0  0  0  0  0  0  0  0  0  0  0
    3.6789   -3.1361    2.9364 H   0  0  0  0  0  0  0  0  0  0  0  0
    4.8773   -2.7436    1.6931 H   0  0  0  0  0  0  0  0  0  0  0  0
    4.4763   -1.5616    2.9551 H   0  0  0  0  0  0  0  0  0  0  0  0
    2.3820   -2.6174    0.9915 H   0  0  0  0  0  0  0  0  0  0  0  0
    4.6322    0.4345    1.8437 H   0  0  0  0  0  0  0  0  0  0  0  0
    5.0677    0.0250    0.1732 H   0  0  0  0  0  0  0  0  0  0  0  0
    4.0191    1.4131    0.5122 H   0  0  0  0  0  0  0  0  0  0  0  0
    0.8789    0.4986   -2.4807 H   0  0  0  0  0  0  0  0  0  0  0  0
   -1.5553    0.0982   -2.1881 H   0  0  0  0  0  0  0  0  0  0  0  0
   -1.9917    3.6408    1.4648 H   0  0  0  0  0  0  0  0  0  0  0  0
   -3.6894    2.3677    2.7195 H   0  0  0  0  0  0  0  0  0  0  0  0
   -5.3955   -2.0999    2.3960 H   0  0  0  0  0  0  0  0  0  0  0  0
   -4.9717    0.2326    3.0799 H   0  0  0  0  0  0  0  0  0  0  0  0
   -0.9412    3.7679   -2.9487 H   0  0  0  0  0  0  0  0  0  0  0  0
   -1.8003    2.2580   -2.7921 H   0  0  0  0  0  0  0  0  0  0  0  0
   -0.3386    2.3304   -3.8006 H   0  0  0  0  0  0  0  0  0  0  0  0
    1.9779    2.8380   -2.6248 H   0  0  0  0  0  0  0  0  0  0  0  0
    1.1728    4.2207   -1.8517 H   0  0  0  0  0  0  0  0  0  0  0  0
    1.9965    3.0424   -0.8571 H   0  0  0  0  0  0  0  0  0  0  0  0
    0.0224   -4.1394   -2.6083 H   0  0  0  0  0  0  0  0  0  0  0  0
    0.7601   -3.5566   -1.1040 H   0  0  0  0  0  0  0  0  0  0  0  0
   -0.9946   -3.9389   -1.1644 H   0  0  0  0  0  0  0  0  0  0  0  0
  1  2  1  0
  2  3  1  0
  3  4  1  0
  3  5  1  0
  3  6  1  0
  6  7  2  0
  6  8  1  0
  8  9  1  0
  9 10  1  0
 10 11  1  0
 11 12  2  0
 12 13  1  0
 13 14  2  0
 14 15  1  0
 15 16  2  0
 16 17  1  0
 17 18  1  0
 18 19  2  0
 18 20  1  0
 20 21  2  0
 12 22  1  0
 22 23  1  0
 23 24  1  0
 23 25  1  0
 10 26  1  0
 26 27  1  0
 27 28  2  0
 27 29  1  0
  4  2  1  0
 23  9  1  0
 16 11  1  0
 21 15  1  0
  1 30  1  0
  1 31  1  0
  1 32  1  0
  2 33  1  0
  5 34  1  0
  5 35  1  0
  5 36  1  0
  9 37  1  0
 10 38  1  0
 13 39  1  0
 14 40  1  0
 20 41  1  0
 21 42  1  0
 24 43  1  0
 24 44  1  0
 24 45  1  0
 25 46  1  0
 25 47  1  0
 25 48  1  0
 29 49  1  0
 29 50  1  0
 29 51  1  0
M  END
>  <Name>  (320) 
Cartilaginomarginadin

>  <PubChem ID>  (320) 
188766

>  <CDB ID>  (320) 
CDB0320

>  <Smiles>  (320) 
CC1C(O1)(C)C(=O)OC2C(C3=C(C=CC4=C3OC(=O)C=C4)OC2(C)C)OC(=O)C

>  <Chemical class>  (320) 
7-Oxygenated Coumarins

>  <Natural source>  (320) 
Angelica cartilaginomarginata var. foliata

>  <Molecular Formula>  (320) 
C21H22O8

>  <InChI-Key>  (320) 
JATBXVRRSYYPIL-UHFFFAOYSA-N

>  <Total Molweight>  (320) 
402.398

>  <cLogP>  (320) 
1.9112

>  <cLogS>  (320) 
-3.699

>  <H-Acceptors>  (320) 
8

>  <H-Donors>  (320) 
0

>  <Rotatable Bonds>  (320) 
5

>  <Polar Surface Area>  (320) 
100.66

$$$$
CDB0321
     RDKit          3D

 45 47  0  0  0  0  0  0  0  0999 V2000
    3.5823    0.6810    1.5565 C   0  0  0  0  0  0  0  0  0  0  0  0
    4.2743    1.1145    0.3027 C   0  0  0  0  0  0  0  0  0  0  0  0
    3.7268    1.3749   -0.9009 C   0  0  0  0  0  0  0  0  0  0  0  0
    4.5324    1.8999   -2.0525 C   0  0  0  0  0  0  0  0  0  0  0  0
    2.2852    1.1971   -1.2088 C   0  0  0  0  0  0  0  0  0  0  0  0
    1.6286    1.9920   -1.8629 O   0  0  0  0  0  0  0  0  0  0  0  0
    1.8356    0.0146   -0.7314 O   0  0  0  0  0  0  0  0  0  0  0  0
    0.4640   -0.3510   -1.0429 C   0  0  0  0  0  0  0  0  0  0  0  0
   -0.5398    0.5310   -0.2665 C   0  0  0  0  0  0  0  0  0  0  0  0
   -1.8259   -0.1757    0.0588 C   0  0  0  0  0  0  0  0  0  0  0  0
   -2.0302   -1.5022   -0.3226 C   0  0  0  0  0  0  0  0  0  0  0  0
   -3.2578   -2.1331   -0.1010 C   0  0  0  0  0  0  0  0  0  0  0  0
   -4.2918   -1.4599    0.5515 C   0  0  0  0  0  0  0  0  0  0  0  0
   -4.0944   -0.1531    0.9943 C   0  0  0  0  0  0  0  0  0  0  0  0
   -2.8661    0.4672    0.7505 C   0  0  0  0  0  0  0  0  0  0  0  0
   -2.6371    1.7799    1.2284 O   0  0  0  0  0  0  0  0  0  0  0  0
   -3.6072    2.4947    1.9140 C   0  0  0  0  0  0  0  0  0  0  0  0
   -3.4132    3.6233    2.3509 O   0  0  0  0  0  0  0  0  0  0  0  0
   -4.9015    1.8235    2.1191 C   0  0  0  0  0  0  0  0  0  0  0  0
   -5.1374    0.5788    1.6951 C   0  0  0  0  0  0  0  0  0  0  0  0
   -1.0720   -2.2714   -0.9211 O   0  0  0  0  0  0  0  0  0  0  0  0
    0.2844   -1.8459   -0.6983 C   0  0  0  0  0  0  0  0  0  0  0  0
    0.7160   -2.2048    0.7380 C   0  0  0  0  0  0  0  0  0  0  0  0
    1.1366   -2.6942   -1.6609 C   0  0  0  0  0  0  0  0  0  0  0  0
   -0.8823    1.6789   -1.0545 O   0  0  0  0  0  0  0  0  0  0  0  0
    3.9646    1.2633    2.4014 H   0  0  0  0  0  0  0  0  0  0  0  0
    2.5010    0.8359    1.5286 H   0  0  0  0  0  0  0  0  0  0  0  0
    3.7866   -0.3756    1.7524 H   0  0  0  0  0  0  0  0  0  0  0  0
    5.3470    1.2646    0.4209 H   0  0  0  0  0  0  0  0  0  0  0  0
    4.1913    2.9007   -2.3373 H   0  0  0  0  0  0  0  0  0  0  0  0
    4.4342    1.2385   -2.9198 H   0  0  0  0  0  0  0  0  0  0  0  0
    5.5982    1.9697   -1.8102 H   0  0  0  0  0  0  0  0  0  0  0  0
    0.3038   -0.2166   -2.1226 H   0  0  0  0  0  0  0  0  0  0  0  0
   -0.0805    0.8914    0.6619 H   0  0  0  0  0  0  0  0  0  0  0  0
   -3.4025   -3.1601   -0.4280 H   0  0  0  0  0  0  0  0  0  0  0  0
   -5.2369   -1.9706    0.7168 H   0  0  0  0  0  0  0  0  0  0  0  0
   -5.6529    2.4014    2.6427 H   0  0  0  0  0  0  0  0  0  0  0  0
   -6.0982    0.1039    1.8601 H   0  0  0  0  0  0  0  0  0  0  0  0
    0.1774   -1.6185    1.4892 H   0  0  0  0  0  0  0  0  0  0  0  0
    0.4942   -3.2565    0.9540 H   0  0  0  0  0  0  0  0  0  0  0  0
    1.7876   -2.0429    0.8932 H   0  0  0  0  0  0  0  0  0  0  0  0
    0.9816   -3.7641   -1.4778 H   0  0  0  0  0  0  0  0  0  0  0  0
    2.2058   -2.4802   -1.5636 H   0  0  0  0  0  0  0  0  0  0  0  0
    0.8407   -2.5163   -2.7013 H   0  0  0  0  0  0  0  0  0  0  0  0
   -0.0522    2.0723   -1.3959 H   0  0  0  0  0  0  0  0  0  0  0  0
  1  2  1  0
  2  3  2  3
  3  4  1  0
  3  5  1  0
  5  6  2  0
  5  7  1  0
  7  8  1  0
  8  9  1  0
  9 10  1  0
 10 11  2  0
 11 12  1  0
 12 13  2  0
 13 14  1  0
 14 15  2  0
 15 16  1  0
 16 17  1  0
 17 18  2  0
 17 19  1  0
 19 20  2  0
 11 21  1  0
 21 22  1  0
 22 23  1  0
 22 24  1  0
  9 25  1  0
 22  8  1  0
 15 10  1  0
 20 14  1  0
  1 26  1  0
  1 27  1  0
  1 28  1  0
  2 29  1  0
  4 30  1  0
  4 31  1  0
  4 32  1  0
  8 33  1  0
  9 34  1  0
 12 35  1  0
 13 36  1  0
 19 37  1  0
 20 38  1  0
 23 39  1  0
 23 40  1  0
 23 41  1  0
 24 42  1  0
 24 43  1  0
 24 44  1  0
 25 45  1  0
M  END
>  <Name>  (321) 
Praeruptorin F

>  <PubChem ID>  (321) 
51668830

>  <CDB ID>  (321) 
CDB0321

>  <Smiles>  (321) 
CC=C(C)C(=O)OC1C(C2=C(C=CC3=C2OC(=O)C=C3)OC1(C)C)O

>  <Chemical class>  (321) 
7-Oxygenated Coumarins

>  <Natural source>  (321) 
Angelica cartilaginomarginata var. foliata

>  <Molecular Formula>  (321) 
C19H20O6

>  <InChI-Key>  (321) 
KJWFOHVSTFGWGZ-UHFFFAOYSA-N

>  <Total Molweight>  (321) 
344.362

>  <cLogP>  (321) 
2.8574

>  <cLogS>  (321) 
-3.393

>  <H-Acceptors>  (321) 
6

>  <H-Donors>  (321) 
1

>  <Rotatable Bonds>  (321) 
3

>  <Polar Surface Area>  (321) 
82.06

$$$$
CDB0322
     RDKit          3D

 43 45  0  0  0  0  0  0  0  0999 V2000
   -3.0151    2.0400   -1.6112 C   0  0  0  0  0  0  0  0  0  0  0  0
   -4.1148    1.4803   -0.7652 C   0  0  0  0  0  0  0  0  0  0  0  0
   -4.0080    0.6952    0.3254 C   0  0  0  0  0  0  0  0  0  0  0  0
   -5.2065    0.2976    1.1372 C   0  0  0  0  0  0  0  0  0  0  0  0
   -2.7238    0.1581    0.8547 C   0  0  0  0  0  0  0  0  0  0  0  0
   -2.5017    0.0009    2.0458 O   0  0  0  0  0  0  0  0  0  0  0  0
   -1.9208   -0.2480   -0.1600 O   0  0  0  0  0  0  0  0  0  0  0  0
   -0.6543   -0.7726    0.2488 C   0  0  0  0  0  0  0  0  0  0  0  0
    0.3607    0.3335    0.4910 C   0  0  0  0  0  0  0  0  0  0  0  0
    0.0696    1.5229    0.5350 O   0  0  0  0  0  0  0  0  0  0  0  0
    1.7527   -0.1316    0.6477 C   0  0  0  0  0  0  0  0  0  0  0  0
    2.0694   -1.4047    0.1686 C   0  0  0  0  0  0  0  0  0  0  0  0
    3.3677   -1.9003    0.3118 C   0  0  0  0  0  0  0  0  0  0  0  0
    4.3593   -1.1236    0.9154 C   0  0  0  0  0  0  0  0  0  0  0  0
    4.0544    0.1545    1.3878 C   0  0  0  0  0  0  0  0  0  0  0  0
    2.7511    0.6416    1.2528 C   0  0  0  0  0  0  0  0  0  0  0  0
    2.4346    1.9230    1.7569 O   0  0  0  0  0  0  0  0  0  0  0  0
    3.3760    2.7396    2.3659 C   0  0  0  0  0  0  0  0  0  0  0  0
    3.1129    3.8544    2.8000 O   0  0  0  0  0  0  0  0  0  0  0  0
    4.7399    2.1968    2.4768 C   0  0  0  0  0  0  0  0  0  0  0  0
    5.0669    0.9840    2.0221 C   0  0  0  0  0  0  0  0  0  0  0  0
    1.1902   -2.2517   -0.4489 O   0  0  0  0  0  0  0  0  0  0  0  0
   -0.0826   -1.6978   -0.8401 C   0  0  0  0  0  0  0  0  0  0  0  0
    0.0609   -1.0159   -2.2129 C   0  0  0  0  0  0  0  0  0  0  0  0
   -1.0153   -2.9101   -1.0131 C   0  0  0  0  0  0  0  0  0  0  0  0
   -2.9337    1.4767   -2.5453 H   0  0  0  0  0  0  0  0  0  0  0  0
   -3.2452    3.0811   -1.8617 H   0  0  0  0  0  0  0  0  0  0  0  0
   -2.0457    2.0451   -1.1092 H   0  0  0  0  0  0  0  0  0  0  0  0
   -5.1100    1.8014   -1.0701 H   0  0  0  0  0  0  0  0  0  0  0  0
   -5.1424    0.7130    2.1483 H   0  0  0  0  0  0  0  0  0  0  0  0
   -6.1417    0.6539    0.6920 H   0  0  0  0  0  0  0  0  0  0  0  0
   -5.2727   -0.7931    1.2117 H   0  0  0  0  0  0  0  0  0  0  0  0
   -0.7497   -1.3375    1.1871 H   0  0  0  0  0  0  0  0  0  0  0  0
    3.6109   -2.8951   -0.0563 H   0  0  0  0  0  0  0  0  0  0  0  0
    5.3644   -1.5289    1.0108 H   0  0  0  0  0  0  0  0  0  0  0  0
    5.4652    2.8442    2.9545 H   0  0  0  0  0  0  0  0  0  0  0  0
    6.0795    0.6071    2.1183 H   0  0  0  0  0  0  0  0  0  0  0  0
    0.4832   -1.7131   -2.9462 H   0  0  0  0  0  0  0  0  0  0  0  0
   -0.9022   -0.6600   -2.5928 H   0  0  0  0  0  0  0  0  0  0  0  0
    0.7484   -0.1646   -2.1765 H   0  0  0  0  0  0  0  0  0  0  0  0
   -2.0118   -2.6175   -1.3596 H   0  0  0  0  0  0  0  0  0  0  0  0
   -1.1229   -3.4544   -0.0677 H   0  0  0  0  0  0  0  0  0  0  0  0
   -0.5970   -3.6245   -1.7319 H   0  0  0  0  0  0  0  0  0  0  0  0
  1  2  1  0
  2  3  2  3
  3  4  1  0
  3  5  1  0
  5  6  2  0
  5  7  1  0
  7  8  1  0
  8  9  1  0
  9 10  2  0
  9 11  1  0
 11 12  2  0
 12 13  1  0
 13 14  2  0
 14 15  1  0
 15 16  2  0
 16 17  1  0
 17 18  1  0
 18 19  2  0
 18 20  1  0
 20 21  2  0
 12 22  1  0
 22 23  1  0
 23 24  1  0
 23 25  1  0
 23  8  1  0
 16 11  1  0
 21 15  1  0
  1 26  1  0
  1 27  1  0
  1 28  1  0
  2 29  1  0
  4 30  1  0
  4 31  1  0
  4 32  1  0
  8 33  1  0
 13 34  1  0
 14 35  1  0
 20 36  1  0
 21 37  1  0
 24 38  1  0
 24 39  1  0
 24 40  1  0
 25 41  1  0
 25 42  1  0
 25 43  1  0
M  END
>  <Name>  (322) 
Qianhucoumarin E

>  <PubChem ID>  (322) 
131676021

>  <CDB ID>  (322) 
CDB0322

>  <Smiles>  (322) 
CC=C(C)C(=O)OC1C(=O)C2=C(C=CC3=C2OC(=O)C=C3)OC1(C)C

>  <Chemical class>  (322) 
7-Oxygenated Coumarins

>  <Natural source>  (322) 
Peucedanum praeruptorum

>  <Molecular Formula>  (322) 
C19H18O6

>  <InChI-Key>  (322) 
PGOMXBOHQUBUMI-KRWDZBQOSA-N

>  <Total Molweight>  (322) 
342.346

>  <cLogP>  (322) 
3.0326

>  <cLogS>  (322) 
-4.122

>  <H-Acceptors>  (322) 
6

>  <H-Donors>  (322) 
0

>  <Rotatable Bonds>  (322) 
3

>  <Polar Surface Area>  (322) 
78.9

$$$$
CDB0323
     RDKit          3D

 43 45  0  0  0  0  0  0  0  0999 V2000
   -3.0151    2.0400   -1.6112 C   0  0  0  0  0  0  0  0  0  0  0  0
   -4.1148    1.4803   -0.7652 C   0  0  0  0  0  0  0  0  0  0  0  0
   -4.0080    0.6952    0.3254 C   0  0  0  0  0  0  0  0  0  0  0  0
   -5.2065    0.2976    1.1372 C   0  0  0  0  0  0  0  0  0  0  0  0
   -2.7238    0.1581    0.8547 C   0  0  0  0  0  0  0  0  0  0  0  0
   -2.5017    0.0009    2.0458 O   0  0  0  0  0  0  0  0  0  0  0  0
   -1.9208   -0.2480   -0.1600 O   0  0  0  0  0  0  0  0  0  0  0  0
   -0.6543   -0.7726    0.2488 C   0  0  0  0  0  0  0  0  0  0  0  0
    0.3607    0.3335    0.4910 C   0  0  0  0  0  0  0  0  0  0  0  0
    0.0696    1.5229    0.5350 O   0  0  0  0  0  0  0  0  0  0  0  0
    1.7527   -0.1316    0.6477 C   0  0  0  0  0  0  0  0  0  0  0  0
    2.0694   -1.4047    0.1686 C   0  0  0  0  0  0  0  0  0  0  0  0
    3.3677   -1.9003    0.3118 C   0  0  0  0  0  0  0  0  0  0  0  0
    4.3593   -1.1236    0.9154 C   0  0  0  0  0  0  0  0  0  0  0  0
    4.0544    0.1545    1.3878 C   0  0  0  0  0  0  0  0  0  0  0  0
    2.7511    0.6416    1.2528 C   0  0  0  0  0  0  0  0  0  0  0  0
    2.4346    1.9230    1.7569 O   0  0  0  0  0  0  0  0  0  0  0  0
    3.3760    2.7396    2.3659 C   0  0  0  0  0  0  0  0  0  0  0  0
    3.1129    3.8544    2.8000 O   0  0  0  0  0  0  0  0  0  0  0  0
    4.7399    2.1968    2.4768 C   0  0  0  0  0  0  0  0  0  0  0  0
    5.0669    0.9840    2.0221 C   0  0  0  0  0  0  0  0  0  0  0  0
    1.1902   -2.2517   -0.4489 O   0  0  0  0  0  0  0  0  0  0  0  0
   -0.0826   -1.6978   -0.8401 C   0  0  0  0  0  0  0  0  0  0  0  0
    0.0609   -1.0159   -2.2129 C   0  0  0  0  0  0  0  0  0  0  0  0
   -1.0153   -2.9101   -1.0131 C   0  0  0  0  0  0  0  0  0  0  0  0
   -2.9337    1.4767   -2.5453 H   0  0  0  0  0  0  0  0  0  0  0  0
   -3.2452    3.0811   -1.8617 H   0  0  0  0  0  0  0  0  0  0  0  0
   -2.0457    2.0451   -1.1092 H   0  0  0  0  0  0  0  0  0  0  0  0
   -5.1100    1.8014   -1.0701 H   0  0  0  0  0  0  0  0  0  0  0  0
   -5.1424    0.7130    2.1483 H   0  0  0  0  0  0  0  0  0  0  0  0
   -6.1417    0.6539    0.6920 H   0  0  0  0  0  0  0  0  0  0  0  0
   -5.2727   -0.7931    1.2117 H   0  0  0  0  0  0  0  0  0  0  0  0
   -0.7497   -1.3375    1.1871 H   0  0  0  0  0  0  0  0  0  0  0  0
    3.6109   -2.8951   -0.0563 H   0  0  0  0  0  0  0  0  0  0  0  0
    5.3644   -1.5289    1.0108 H   0  0  0  0  0  0  0  0  0  0  0  0
    5.4652    2.8442    2.9545 H   0  0  0  0  0  0  0  0  0  0  0  0
    6.0795    0.6071    2.1183 H   0  0  0  0  0  0  0  0  0  0  0  0
    0.4832   -1.7131   -2.9462 H   0  0  0  0  0  0  0  0  0  0  0  0
   -0.9022   -0.6600   -2.5928 H   0  0  0  0  0  0  0  0  0  0  0  0
    0.7484   -0.1646   -2.1765 H   0  0  0  0  0  0  0  0  0  0  0  0
   -2.0118   -2.6175   -1.3596 H   0  0  0  0  0  0  0  0  0  0  0  0
   -1.1229   -3.4544   -0.0677 H   0  0  0  0  0  0  0  0  0  0  0  0
   -0.5970   -3.6245   -1.7319 H   0  0  0  0  0  0  0  0  0  0  0  0
  1  2  1  0
  2  3  2  3
  3  4  1  0
  3  5  1  0
  5  6  2  0
  5  7  1  0
  7  8  1  0
  8  9  1  0
  9 10  2  0
  9 11  1  0
 11 12  2  0
 12 13  1  0
 13 14  2  0
 14 15  1  0
 15 16  2  0
 16 17  1  0
 17 18  1  0
 18 19  2  0
 18 20  1  0
 20 21  2  0
 12 22  1  0
 22 23  1  0
 23 24  1  0
 23 25  1  0
 23  8  1  0
 16 11  1  0
 21 15  1  0
  1 26  1  0
  1 27  1  0
  1 28  1  0
  2 29  1  0
  4 30  1  0
  4 31  1  0
  4 32  1  0
  8 33  1  0
 13 34  1  0
 14 35  1  0
 20 36  1  0
 21 37  1  0
 24 38  1  0
 24 39  1  0
 24 40  1  0
 25 41  1  0
 25 42  1  0
 25 43  1  0
M  END
>  <Name>  (323) 
Pd-Ib

>  <PubChem ID>  (323) 
51136479

>  <CDB ID>  (323) 
CDB0323

>  <Smiles>  (323) 
CC=C(C)C(=O)OC1C(=O)C2=C(C=CC3=C2OC(=O)C=C3)OC1(C)C

>  <Chemical class>  (323) 
7-Oxygenated Coumarins

>  <Natural source>  (323) 
Peucedanum praeruptorum

>  <Molecular Formula>  (323) 
C19H18O6

>  <InChI-Key>  (323) 
PGOMXBOHQUBUMI-KRWDZBQOSA-N

>  <Total Molweight>  (323) 
342.346

>  <cLogP>  (323) 
3.0326

>  <cLogS>  (323) 
-4.122

>  <H-Acceptors>  (323) 
6

>  <H-Donors>  (323) 
0

>  <Rotatable Bonds>  (323) 
3

>  <Polar Surface Area>  (323) 
78.9

$$$$
CDB0324
     RDKit          3D

 29 31  0  0  0  0  0  0  0  0999 V2000
    3.3680   -0.1134    1.2872 C   0  0  0  0  0  0  0  0  0  0  0  0
    2.5372    0.0095    0.0045 C   0  0  0  0  0  0  0  0  0  0  0  0
    1.8674    1.3632   -0.0279 C   0  0  0  0  0  0  0  0  0  0  0  0
    0.5426    1.5276   -0.0731 C   0  0  0  0  0  0  0  0  0  0  0  0
   -0.2977    0.3385   -0.0920 C   0  0  0  0  0  0  0  0  0  0  0  0
    0.3020   -0.9223   -0.0626 C   0  0  0  0  0  0  0  0  0  0  0  0
    1.6516   -1.1291   -0.0162 O   0  0  0  0  0  0  0  0  0  0  0  0
   -0.4820   -2.0805   -0.0799 C   0  0  0  0  0  0  0  0  0  0  0  0
   -1.8753   -1.9940   -0.1268 C   0  0  0  0  0  0  0  0  0  0  0  0
   -2.4922   -0.7433   -0.1567 C   0  0  0  0  0  0  0  0  0  0  0  0
   -1.6981    0.4067   -0.1390 C   0  0  0  0  0  0  0  0  0  0  0  0
   -2.3109    1.6828   -0.1689 O   0  0  0  0  0  0  0  0  0  0  0  0
   -3.6881    1.8372   -0.2158 C   0  0  0  0  0  0  0  0  0  0  0  0
   -4.2262    2.9378   -0.2419 O   0  0  0  0  0  0  0  0  0  0  0  0
   -4.4928    0.6050   -0.2332 C   0  0  0  0  0  0  0  0  0  0  0  0
   -3.9397   -0.6109   -0.2057 C   0  0  0  0  0  0  0  0  0  0  0  0
    3.4511   -0.1322   -1.2184 C   0  0  0  0  0  0  0  0  0  0  0  0
    3.8742   -1.0848    1.3331 H   0  0  0  0  0  0  0  0  0  0  0  0
    4.1265    0.6736    1.3626 H   0  0  0  0  0  0  0  0  0  0  0  0
    2.7261   -0.0587    2.1748 H   0  0  0  0  0  0  0  0  0  0  0  0
    2.5077    2.2416   -0.0133 H   0  0  0  0  0  0  0  0  0  0  0  0
    0.0897    2.5125   -0.0955 H   0  0  0  0  0  0  0  0  0  0  0  0
   -0.0003   -3.0552   -0.0566 H   0  0  0  0  0  0  0  0  0  0  0  0
   -2.4627   -2.9087   -0.1394 H   0  0  0  0  0  0  0  0  0  0  0  0
   -5.5663    0.7440   -0.2699 H   0  0  0  0  0  0  0  0  0  0  0  0
   -4.5532   -1.5052   -0.2193 H   0  0  0  0  0  0  0  0  0  0  0  0
    3.9587   -1.1041   -1.2161 H   0  0  0  0  0  0  0  0  0  0  0  0
    4.2133    0.6538   -1.2552 H   0  0  0  0  0  0  0  0  0  0  0  0
    2.8694   -0.0913   -2.1472 H   0  0  0  0  0  0  0  0  0  0  0  0
  1  2  1  0
  2  3  1  0
  3  4  2  0
  4  5  1  0
  5  6  2  0
  6  7  1  0
  6  8  1  0
  8  9  2  0
  9 10  1  0
 10 11  2  0
 11 12  1  0
 12 13  1  0
 13 14  2  0
 13 15  1  0
 15 16  2  0
  2 17  1  0
  7  2  1  0
 11  5  1  0
 16 10  1  0
  1 18  1  0
  1 19  1  0
  1 20  1  0
  3 21  1  0
  4 22  1  0
  8 23  1  0
  9 24  1  0
 15 25  1  0
 16 26  1  0
 17 27  1  0
 17 28  1  0
 17 29  1  0
M  END
>  <Name>  (324) 
Seselin (Amyrolin)

>  <PubChem ID>  (324) 
68229

>  <CDB ID>  (324) 
CDB0324

>  <Smiles>  (324) 
CC1(C=CC2=C(O1)C=CC3=C2OC(=O)C=C3)C

>  <Chemical class>  (324) 
7-Oxygenated Coumarins

>  <Natural source>  (324) 
Amyris balsamifera, Skimmia repens, Seseli indicum

>  <Molecular Formula>  (324) 
C14H12O3

>  <InChI-Key>  (324) 
QUVCQYQEIOLHFZ-UHFFFAOYSA-N

>  <Total Molweight>  (324) 
228.246

>  <cLogP>  (324) 
2.5241

>  <cLogS>  (324) 
-3.629

>  <H-Acceptors>  (324) 
3

>  <H-Donors>  (324) 
0

>  <Rotatable Bonds>  (324) 
0

>  <Polar Surface Area>  (324) 
35.53

$$$$
CDB0325
     RDKit          3D

 27 28  0  0  0  0  0  0  0  0999 V2000
    4.3030   -0.4461    0.8796 C   0  0  0  0  0  0  0  0  0  0  0  0
    3.1581   -0.8238   -0.0241 C   0  0  0  0  0  0  0  0  0  0  0  0
    3.2489   -1.7975   -0.7746 O   0  0  0  0  0  0  0  0  0  0  0  0
    1.9060   -0.0120    0.0157 C   0  0  0  0  0  0  0  0  0  0  0  0
    0.7613   -0.6560   -0.2652 C   0  0  0  0  0  0  0  0  0  0  0  0
   -0.5253    0.0345   -0.2457 C   0  0  0  0  0  0  0  0  0  0  0  0
   -1.7547   -0.5837   -0.5485 C   0  0  0  0  0  0  0  0  0  0  0  0
   -2.9368    0.1786   -0.4703 C   0  0  0  0  0  0  0  0  0  0  0  0
   -2.8963    1.5238   -0.1139 C   0  0  0  0  0  0  0  0  0  0  0  0
   -1.6922    2.1440    0.1758 C   0  0  0  0  0  0  0  0  0  0  0  0
   -0.5246    1.3867    0.1057 C   0  0  0  0  0  0  0  0  0  0  0  0
    0.6765    2.0579    0.4091 O   0  0  0  0  0  0  0  0  0  0  0  0
    1.9116    1.4227    0.3580 C   0  0  0  0  0  0  0  0  0  0  0  0
    2.9446    2.0412    0.5864 O   0  0  0  0  0  0  0  0  0  0  0  0
   -4.0784    2.1990   -0.0613 O   0  0  0  0  0  0  0  0  0  0  0  0
   -1.8637   -2.0385   -0.9282 C   0  0  0  0  0  0  0  0  0  0  0  0
   -1.6601   -2.8590    0.2131 O   0  0  0  0  0  0  0  0  0  0  0  0
    3.9350   -0.0583    1.8332 H   0  0  0  0  0  0  0  0  0  0  0  0
    4.8936   -1.3409    1.0993 H   0  0  0  0  0  0  0  0  0  0  0  0
    4.9404    0.2900    0.3841 H   0  0  0  0  0  0  0  0  0  0  0  0
    0.7720   -1.7167   -0.5042 H   0  0  0  0  0  0  0  0  0  0  0  0
   -3.9023   -0.2741   -0.6905 H   0  0  0  0  0  0  0  0  0  0  0  0
   -1.6415    3.1913    0.4535 H   0  0  0  0  0  0  0  0  0  0  0  0
   -3.9056    3.1244    0.1811 H   0  0  0  0  0  0  0  0  0  0  0  0
   -2.8536   -2.2684   -1.3372 H   0  0  0  0  0  0  0  0  0  0  0  0
   -1.1345   -2.3024   -1.7007 H   0  0  0  0  0  0  0  0  0  0  0  0
   -2.0814   -2.4166    0.9698 H   0  0  0  0  0  0  0  0  0  0  0  0
  1  2  1  0
  2  3  2  0
  2  4  1  0
  4  5  2  0
  5  6  1  0
  6  7  1  0
  7  8  2  0
  8  9  1  0
  9 10  2  0
 10 11  1  0
 11 12  1  0
 12 13  1  0
 13 14  2  0
  9 15  1  0
  7 16  1  0
 16 17  1  0
 13  4  1  0
 11  6  2  0
  1 18  1  0
  1 19  1  0
  1 20  1  0
  5 21  1  0
  8 22  1  0
 10 23  1  0
 15 24  1  0
 16 25  1  0
 16 26  1  0
 17 27  1  0
M  END
>  <Name>  (325) 
Armillarisin A

>  <PubChem ID>  (325) 
5320192

>  <CDB ID>  (325) 
CDB0325

>  <Smiles>  (325) 
CC(=O)C1=CC2=C(C=C(C=C2OC1=O)O)CO

>  <Chemical class>  (325) 
7-Oxygenated Coumarins

>  <Natural source>  (325) 
Armillariella tabescens

>  <Molecular Formula>  (325) 
C12H10O5

>  <InChI-Key>  (325) 
XVZWWNMZVZWQKU-UHFFFAOYSA-N

>  <Total Molweight>  (325) 
234.206

>  <cLogP>  (325) 
0.396

>  <cLogS>  (325) 
-2.004

>  <H-Acceptors>  (325) 
5

>  <H-Donors>  (325) 
2

>  <Rotatable Bonds>  (325) 
2

>  <Polar Surface Area>  (325) 
83.83

$$$$
CDB0326
     RDKit          3D

 44 45  0  0  0  0  0  0  0  0999 V2000
   -5.9895    0.6523   -1.8679 C   0  0  0  0  0  0  0  0  0  0  0  0
   -5.2133    0.7232   -0.5780 C   0  0  0  0  0  0  0  0  0  0  0  0
   -4.8864   -0.4037    0.0855 C   0  0  0  0  0  0  0  0  0  0  0  0
   -4.1441   -0.5360    1.3887 C   0  0  0  0  0  0  0  0  0  0  0  0
   -2.7254   -0.9938    1.1848 C   0  0  0  0  0  0  0  0  0  0  0  0
   -1.6868   -0.1433    1.1995 C   0  0  0  0  0  0  0  0  0  0  0  0
   -0.3308   -0.6285    1.0094 C   0  0  0  0  0  0  0  0  0  0  0  0
    0.7736    0.2294    1.0106 C   0  0  0  0  0  0  0  0  0  0  0  0
    2.0782   -0.2713    0.8252 C   0  0  0  0  0  0  0  0  0  0  0  0
    2.2395   -1.6511    0.6224 C   0  0  0  0  0  0  0  0  0  0  0  0
    1.1473   -2.5141    0.6310 C   0  0  0  0  0  0  0  0  0  0  0  0
   -0.1255   -1.9891    0.8227 C   0  0  0  0  0  0  0  0  0  0  0  0
   -1.2073   -2.8871    0.8198 O   0  0  0  0  0  0  0  0  0  0  0  0
   -2.5161   -2.4540    1.0012 C   0  0  0  0  0  0  0  0  0  0  0  0
   -3.4514   -3.2478    1.0120 O   0  0  0  0  0  0  0  0  0  0  0  0
    3.4589   -2.2281    0.4082 O   0  0  0  0  0  0  0  0  0  0  0  0
    3.2473    0.6894    0.8664 C   0  0  0  0  0  0  0  0  0  0  0  0
    3.8110    0.9647   -0.5020 C   0  0  0  0  0  0  0  0  0  0  0  0
    5.0868    0.8428   -0.9207 C   0  0  0  0  0  0  0  0  0  0  0  0
    5.4539    1.1601   -2.3488 C   0  0  0  0  0  0  0  0  0  0  0  0
    6.2519    0.4111   -0.0725 C   0  0  0  0  0  0  0  0  0  0  0  0
   -4.8575    2.1192   -0.1485 C   0  0  0  0  0  0  0  0  0  0  0  0
   -6.2359   -0.3767   -2.1500 H   0  0  0  0  0  0  0  0  0  0  0  0
   -6.9301    1.2051   -1.7742 H   0  0  0  0  0  0  0  0  0  0  0  0
   -5.4075    1.0906   -2.6853 H   0  0  0  0  0  0  0  0  0  0  0  0
   -5.1964   -1.3614   -0.3373 H   0  0  0  0  0  0  0  0  0  0  0  0
   -4.6836   -1.2425    2.0322 H   0  0  0  0  0  0  0  0  0  0  0  0
   -4.1600    0.4046    1.9504 H   0  0  0  0  0  0  0  0  0  0  0  0
   -1.8363    0.9220    1.3417 H   0  0  0  0  0  0  0  0  0  0  0  0
    0.6247    1.2969    1.1617 H   0  0  0  0  0  0  0  0  0  0  0  0
    1.2883   -3.5801    0.4817 H   0  0  0  0  0  0  0  0  0  0  0  0
    4.0801   -1.5441    0.1078 H   0  0  0  0  0  0  0  0  0  0  0  0
    2.9249    1.6462    1.2966 H   0  0  0  0  0  0  0  0  0  0  0  0
    3.9900    0.2938    1.5653 H   0  0  0  0  0  0  0  0  0  0  0  0
    3.0667    1.3079   -1.2226 H   0  0  0  0  0  0  0  0  0  0  0  0
    6.1865    1.9733   -2.3802 H   0  0  0  0  0  0  0  0  0  0  0  0
    5.8895    0.2793   -2.8318 H   0  0  0  0  0  0  0  0  0  0  0  0
    4.5878    1.4700   -2.9429 H   0  0  0  0  0  0  0  0  0  0  0  0
    7.0275    1.1843   -0.0783 H   0  0  0  0  0  0  0  0  0  0  0  0
    5.9886    0.2268    0.9706 H   0  0  0  0  0  0  0  0  0  0  0  0
    6.6836   -0.5129   -0.4713 H   0  0  0  0  0  0  0  0  0  0  0  0
   -4.3169    2.6326   -0.9509 H   0  0  0  0  0  0  0  0  0  0  0  0
   -4.2194    2.1526    0.7371 H   0  0  0  0  0  0  0  0  0  0  0  0
   -5.7666    2.6877    0.0730 H   0  0  0  0  0  0  0  0  0  0  0  0
  1  2  1  0
  2  3  2  3
  3  4  1  0
  4  5  1  0
  5  6  2  0
  6  7  1  0
  7  8  2  0
  8  9  1  0
  9 10  2  0
 10 11  1  0
 11 12  2  0
 12 13  1  0
 13 14  1  0
 14 15  2  0
 10 16  1  0
  9 17  1  0
 17 18  1  0
 18 19  2  3
 19 20  1  0
 19 21  1  0
  2 22  1  0
 14  5  1  0
 12  7  1  0
  1 23  1  0
  1 24  1  0
  1 25  1  0
  3 26  1  0
  4 27  1  0
  4 28  1  0
  6 29  1  0
  8 30  1  0
 11 31  1  0
 16 32  1  0
 17 33  1  0
 17 34  1  0
 18 35  1  0
 20 36  1  0
 20 37  1  0
 20 38  1  0
 21 39  1  0
 21 40  1  0
 21 41  1  0
 22 42  1  0
 22 43  1  0
 22 44  1  0
M  END
>  <Name>  (326) 
Balsamiferone

>  <PubChem ID>  (326) 
44521069

>  <CDB ID>  (326) 
CDB0326

>  <Smiles>  (326) 
CC(=CCC1=CC2=CC(=C(C=C2OC1=O)O)CC=C(C)C)C

>  <Chemical class>  (326) 
7-Oxygenated Coumarins

>  <Natural source>  (326) 
Amyris balsamifera

>  <Molecular Formula>  (326) 
C19H22O3

>  <InChI-Key>  (326) 
DTWBKFLILHBTHQ-UHFFFAOYSA-N

>  <Total Molweight>  (326) 
298.381

>  <cLogP>  (326) 
5.3318

>  <cLogS>  (326) 
-3.843

>  <H-Acceptors>  (326) 
3

>  <H-Donors>  (326) 
1

>  <Rotatable Bonds>  (326) 
4

>  <Polar Surface Area>  (326) 
46.53

$$$$
CDB0327
     RDKit          3D

 51 52  0  0  0  0  0  0  0  0999 V2000
   -4.5992    1.5706    2.6131 C   0  0  0  0  0  0  0  0  0  0  0  0
   -4.1379    1.7637    1.3684 C   0  0  0  0  0  0  0  0  0  0  0  0
   -4.4195    0.9307    0.1017 C   0  0  0  0  0  0  0  0  0  0  0  0
   -4.9243    1.9668   -0.9314 C   0  0  0  0  0  0  0  0  0  0  0  0
   -5.5375   -0.1068    0.3521 C   0  0  0  0  0  0  0  0  0  0  0  0
   -3.1440    0.2052   -0.3925 C   0  0  0  0  0  0  0  0  0  0  0  0
   -2.0027    0.1259    0.3206 C   0  0  0  0  0  0  0  0  0  0  0  0
   -0.8212   -0.5575   -0.1762 C   0  0  0  0  0  0  0  0  0  0  0  0
   -0.8649   -1.1422   -1.4283 C   0  0  0  0  0  0  0  0  0  0  0  0
    0.2340   -1.8017   -1.9780 C   0  0  0  0  0  0  0  0  0  0  0  0
    1.4214   -1.8811   -1.2485 C   0  0  0  0  0  0  0  0  0  0  0  0
    2.5668   -2.4951   -1.6847 O   0  0  0  0  0  0  0  0  0  0  0  0
    2.5083   -3.1700   -2.9362 C   0  0  0  0  0  0  0  0  0  0  0  0
    1.4903   -1.2933    0.0319 C   0  0  0  0  0  0  0  0  0  0  0  0
    2.7600   -1.3522    0.8555 C   0  0  0  0  0  0  0  0  0  0  0  0
    3.8723   -0.3956    0.3752 C   0  0  2  0  0  0  0  0  0  0  0  0
    5.1431   -0.9342    0.7699 O   0  0  0  0  0  0  0  0  0  0  0  0
    3.7487    1.0771    0.8772 C   0  0  0  0  0  0  0  0  0  0  0  0
    3.8463    1.1960    2.4021 C   0  0  0  0  0  0  0  0  0  0  0  0
    4.8499    1.9424    0.2452 C   0  0  0  0  0  0  0  0  0  0  0  0
    2.4917    1.6463    0.4922 O   0  0  0  0  0  0  0  0  0  0  0  0
    0.3616   -0.6360    0.5578 C   0  0  0  0  0  0  0  0  0  0  0  0
   -2.0393   -1.0870   -2.1934 O   0  0  0  0  0  0  0  0  0  0  0  0
   -3.1974   -0.4667   -1.7318 C   0  0  0  0  0  0  0  0  0  0  0  0
   -4.2103   -0.4884   -2.4217 O   0  0  0  0  0  0  0  0  0  0  0  0
   -4.3165    2.2476    3.4146 H   0  0  0  0  0  0  0  0  0  0  0  0
   -5.2587    0.7511    2.8775 H   0  0  0  0  0  0  0  0  0  0  0  0
   -3.4775    2.6205    1.2178 H   0  0  0  0  0  0  0  0  0  0  0  0
   -5.3630    1.5008   -1.8186 H   0  0  0  0  0  0  0  0  0  0  0  0
   -4.1135    2.6243   -1.2684 H   0  0  0  0  0  0  0  0  0  0  0  0
   -5.7096    2.6040   -0.5043 H   0  0  0  0  0  0  0  0  0  0  0  0
   -6.4414    0.3677    0.7534 H   0  0  0  0  0  0  0  0  0  0  0  0
   -5.2174   -0.8791    1.0619 H   0  0  0  0  0  0  0  0  0  0  0  0
   -5.8415   -0.6198   -0.5660 H   0  0  0  0  0  0  0  0  0  0  0  0
   -1.9117    0.5718    1.3059 H   0  0  0  0  0  0  0  0  0  0  0  0
    0.1289   -2.2349   -2.9661 H   0  0  0  0  0  0  0  0  0  0  0  0
    2.3228   -2.4661   -3.7540 H   0  0  0  0  0  0  0  0  0  0  0  0
    1.7593   -3.9686   -2.9209 H   0  0  0  0  0  0  0  0  0  0  0  0
    3.4844   -3.6327   -3.1111 H   0  0  0  0  0  0  0  0  0  0  0  0
    2.5345   -1.1909    1.9154 H   0  0  0  0  0  0  0  0  0  0  0  0
    3.1266   -2.3880    0.8294 H   0  0  0  0  0  0  0  0  0  0  0  0
    3.8762   -0.3751   -0.7219 H   0  0  0  0  0  0  0  0  0  0  0  0
    5.2352   -1.7966    0.3268 H   0  0  0  0  0  0  0  0  0  0  0  0
    2.9971    0.7157    2.8983 H   0  0  0  0  0  0  0  0  0  0  0  0
    4.7727    0.7608    2.7897 H   0  0  0  0  0  0  0  0  0  0  0  0
    3.8099    2.2480    2.7100 H   0  0  0  0  0  0  0  0  0  0  0  0
    4.7921    1.9068   -0.8487 H   0  0  0  0  0  0  0  0  0  0  0  0
    5.8508    1.6204    0.5498 H   0  0  0  0  0  0  0  0  0  0  0  0
    4.7266    2.9954    0.5240 H   0  0  0  0  0  0  0  0  0  0  0  0
    2.4142    1.5700   -0.4752 H   0  0  0  0  0  0  0  0  0  0  0  0
    0.4236   -0.1700    1.5402 H   0  0  0  0  0  0  0  0  0  0  0  0
  1  2  2  0
  2  3  1  0
  3  4  1  0
  3  5  1  0
  3  6  1  0
  6  7  2  0
  7  8  1  0
  8  9  1  0
  9 10  2  0
 10 11  1  0
 11 12  1  0
 12 13  1  0
 11 14  2  0
 14 15  1  0
 15 16  1  0
 16 17  1  0
 16 18  1  0
 18 19  1  0
 18 20  1  0
 18 21  1  0
 14 22  1  0
  9 23  1  0
 23 24  1  0
 24 25  2  0
 24  6  1  0
 22  8  2  0
  1 26  1  0
  1 27  1  0
  2 28  1  0
  4 29  1  0
  4 30  1  0
  4 31  1  0
  5 32  1  0
  5 33  1  0
  5 34  1  0
  7 35  1  0
 10 36  1  0
 13 37  1  0
 13 38  1  0
 13 39  1  0
 15 40  1  0
 15 41  1  0
 16 42  1  6
 17 43  1  0
 19 44  1  0
 19 45  1  0
 19 46  1  0
 20 47  1  0
 20 48  1  0
 20 49  1  0
 21 50  1  0
 22 51  1  0
M  END
>  <Name>  (327) 
Swietenocoumarin I

>  <PubChem ID>  (327) 
14259055

>  <CDB ID>  (327) 
CDB0327

>  <Smiles>  (327) 
C=CC(C)(C)C1=CC2=C(C=C(OC)C(C[C@H](O)C(C)(C)O)=C2)OC1=O

>  <Chemical class>  (327) 
7-Oxygenated Coumarins

>  <Natural source>  (327) 
Chloroxylon swietenia

>  <Molecular Formula>  (327) 
C20H26O5

>  <InChI-Key>  (327) 
JMIHHZJRBXJKLS-KRWDZBQOSA-N

>  <Total Molweight>  (327) 
346.421

>  <cLogP>  (327) 
3.3803

>  <cLogS>  (327) 
-3.682

>  <H-Acceptors>  (327) 
5

>  <H-Donors>  (327) 
2

>  <Rotatable Bonds>  (327) 
6

>  <Polar Surface Area>  (327) 
75.99

$$$$
CDB0328
     RDKit          3D

 42 44  0  0  0  0  0  0  0  0999 V2000
    5.6487    1.4117    0.2860 C   0  0  0  0  0  0  0  0  0  0  0  0
    5.6351   -0.0352   -0.1283 C   0  0  0  0  0  0  0  0  0  0  0  0
    6.7710   -0.7531   -0.1798 C   0  0  0  0  0  0  0  0  0  0  0  0
    4.2950   -0.6378   -0.5025 C   0  0  0  0  0  0  0  0  0  0  0  0
    3.3673   -0.8932    0.7024 C   0  0  0  0  0  0  0  0  0  0  0  0
    2.0688   -0.5144    0.0977 C   0  0  0  0  0  0  0  0  0  0  0  0
    2.2935    0.1406   -1.1038 C   0  0  0  0  0  0  0  0  0  0  0  0
    3.6164    0.2401   -1.4426 O   0  0  0  0  0  0  0  0  0  0  0  0
    1.2610    0.6543   -1.8574 C   0  0  0  0  0  0  0  0  0  0  0  0
   -0.0299    0.4759   -1.3635 C   0  0  0  0  0  0  0  0  0  0  0  0
   -0.2851   -0.1825   -0.1594 C   0  0  0  0  0  0  0  0  0  0  0  0
    0.7841   -0.6842    0.5919 C   0  0  0  0  0  0  0  0  0  0  0  0
   -1.6648   -0.3235    0.2761 C   0  0  0  0  0  0  0  0  0  0  0  0
   -2.7028    0.1573   -0.4372 C   0  0  0  0  0  0  0  0  0  0  0  0
   -2.4177    0.8944   -1.7115 C   0  0  0  0  0  0  0  0  0  0  0  0
   -3.3014    1.4053   -2.3901 O   0  0  0  0  0  0  0  0  0  0  0  0
   -1.0915    0.9941   -2.1211 O   0  0  0  0  0  0  0  0  0  0  0  0
   -4.1829    0.0183   -0.0023 C   0  0  0  0  0  0  0  0  0  0  0  0
   -4.7489    1.4130    0.3495 C   0  0  0  0  0  0  0  0  0  0  0  0
   -5.0531   -0.6043   -1.1208 C   0  0  0  0  0  0  0  0  0  0  0  0
   -4.3321   -0.9591    1.1816 C   0  0  0  0  0  0  0  0  0  0  0  0
   -4.7018   -0.6904    2.4427 C   0  0  0  0  0  0  0  0  0  0  0  0
    4.9980    1.5759    1.1499 H   0  0  0  0  0  0  0  0  0  0  0  0
    6.6534    1.7468    0.5655 H   0  0  0  0  0  0  0  0  0  0  0  0
    5.3070    2.0511   -0.5341 H   0  0  0  0  0  0  0  0  0  0  0  0
    7.7317   -0.3159    0.0773 H   0  0  0  0  0  0  0  0  0  0  0  0
    6.7762   -1.7941   -0.4894 H   0  0  0  0  0  0  0  0  0  0  0  0
    4.4513   -1.5861   -1.0376 H   0  0  0  0  0  0  0  0  0  0  0  0
    3.5878   -0.2518    1.5613 H   0  0  0  0  0  0  0  0  0  0  0  0
    3.4010   -1.9416    1.0135 H   0  0  0  0  0  0  0  0  0  0  0  0
    1.4463    1.1720   -2.7907 H   0  0  0  0  0  0  0  0  0  0  0  0
    0.6217   -1.1882    1.5396 H   0  0  0  0  0  0  0  0  0  0  0  0
   -1.8122   -0.8402    1.2188 H   0  0  0  0  0  0  0  0  0  0  0  0
   -4.7702    2.0830   -0.5160 H   0  0  0  0  0  0  0  0  0  0  0  0
   -4.1493    1.9063    1.1241 H   0  0  0  0  0  0  0  0  0  0  0  0
   -5.7816    1.3458    0.7127 H   0  0  0  0  0  0  0  0  0  0  0  0
   -6.0489   -0.8747   -0.7461 H   0  0  0  0  0  0  0  0  0  0  0  0
   -5.2216    0.0805   -1.9571 H   0  0  0  0  0  0  0  0  0  0  0  0
   -4.5946   -1.5154   -1.5248 H   0  0  0  0  0  0  0  0  0  0  0  0
   -4.1087   -2.0020    0.9471 H   0  0  0  0  0  0  0  0  0  0  0  0
   -4.7703   -1.4881    3.1773 H   0  0  0  0  0  0  0  0  0  0  0  0
   -4.9457    0.3094    2.7854 H   0  0  0  0  0  0  0  0  0  0  0  0
  1  2  1  0
  2  3  2  0
  2  4  1  0
  4  5  1  0
  5  6  1  0
  6  7  2  0
  7  8  1  0
  7  9  1  0
  9 10  2  0
 10 11  1  0
 11 12  2  0
 11 13  1  0
 13 14  2  0
 14 15  1  0
 15 16  2  0
 15 17  1  0
 14 18  1  0
 18 19  1  0
 18 20  1  0
 18 21  1  0
 21 22  2  0
  8  4  1  0
 12  6  1  0
 17 10  1  0
  1 23  1  0
  1 24  1  0
  1 25  1  0
  3 26  1  0
  3 27  1  0
  4 28  1  0
  5 29  1  0
  5 30  1  0
  9 31  1  0
 12 32  1  0
 13 33  1  0
 19 34  1  0
 19 35  1  0
 19 36  1  0
 20 37  1  0
 20 38  1  0
 20 39  1  0
 21 40  1  0
 22 41  1  0
 22 42  1  0
M  END
>  <Name>  (328) 
Exo-Dehydrochalepin

>  <PubChem ID>  (328) 
14135678

>  <CDB ID>  (328) 
CDB0328

>  <Smiles>  (328) 
CC(=C)C1CC2=C(O1)C=C3C(=C2)C=C(C(=O)O3)C(C)(C)C=C

>  <Chemical class>  (328) 
7-Oxygenated Coumarins

>  <Natural source>  (328) 
Ruta graveolens

>  <Molecular Formula>  (328) 
C19H20O3

>  <InChI-Key>  (328) 
VSCRFQYWCSFUIR-OAHLLOKOSA-N

>  <Total Molweight>  (328) 
296.365

>  <cLogP>  (328) 
4.8708

>  <cLogS>  (328) 
-4.388

>  <H-Acceptors>  (328) 
3

>  <H-Donors>  (328) 
0

>  <Rotatable Bonds>  (328) 
3

>  <Polar Surface Area>  (328) 
35.53

$$$$
CDB0329
     RDKit          3D

 45 47  0  0  0  0  0  0  0  0999 V2000
   -5.4343    1.0821   -0.7069 C   0  0  0  0  0  0  0  0  0  0  0  0
   -4.6335    0.1289    0.2147 C   0  0  0  0  0  0  0  0  0  0  0  0
   -4.7734    0.7127    1.6463 C   0  0  0  0  0  0  0  0  0  0  0  0
   -5.3262   -1.2342    0.2710 C   0  0  0  0  0  0  0  0  0  0  0  0
   -4.7513   -2.4413    0.3822 C   0  0  0  0  0  0  0  0  0  0  0  0
   -3.1663    0.0453   -0.2648 C   0  0  0  0  0  0  0  0  0  0  0  0
   -2.1064    0.3830    0.4953 C   0  0  0  0  0  0  0  0  0  0  0  0
   -0.7389    0.2861    0.0110 C   0  0  0  0  0  0  0  0  0  0  0  0
    0.3563    0.6342    0.8104 C   0  0  0  0  0  0  0  0  0  0  0  0
    1.6275    0.5128    0.2694 C   0  0  0  0  0  0  0  0  0  0  0  0
    1.8142    0.0504   -1.0246 C   0  0  0  0  0  0  0  0  0  0  0  0
    0.7560   -0.3103   -1.8290 C   0  0  0  0  0  0  0  0  0  0  0  0
   -0.5214   -0.1786   -1.2873 C   0  0  0  0  0  0  0  0  0  0  0  0
   -1.6089   -0.5358   -2.0992 O   0  0  0  0  0  0  0  0  0  0  0  0
   -2.9285   -0.4470   -1.6638 C   0  0  0  0  0  0  0  0  0  0  0  0
   -3.8383   -0.7653   -2.4212 O   0  0  0  0  0  0  0  0  0  0  0  0
    3.1283   -0.0263   -1.4004 O   0  0  0  0  0  0  0  0  0  0  0  0
    3.8384    0.6889   -0.3526 C   0  0  0  0  0  0  0  0  0  0  0  0
    2.9457    0.7523    0.9026 C   0  0  0  0  0  0  0  0  0  0  0  0
    5.2408    0.0757   -0.1173 C   0  0  0  0  0  0  0  0  0  0  0  0
    6.1049    0.2202   -1.3784 C   0  0  0  0  0  0  0  0  0  0  0  0
    5.1843   -1.4065    0.2697 C   0  0  0  0  0  0  0  0  0  0  0  0
    5.8901    0.7735    0.9547 O   0  0  0  0  0  0  0  0  0  0  0  0
   -5.6071    0.6668   -1.7043 H   0  0  0  0  0  0  0  0  0  0  0  0
   -6.4268    1.2976   -0.2912 H   0  0  0  0  0  0  0  0  0  0  0  0
   -4.9173    2.0417   -0.8272 H   0  0  0  0  0  0  0  0  0  0  0  0
   -5.8255    0.7747    1.9534 H   0  0  0  0  0  0  0  0  0  0  0  0
   -4.3637    1.7282    1.7078 H   0  0  0  0  0  0  0  0  0  0  0  0
   -4.2630    0.0916    2.3928 H   0  0  0  0  0  0  0  0  0  0  0  0
   -6.4161   -1.2075    0.2394 H   0  0  0  0  0  0  0  0  0  0  0  0
   -3.6770   -2.5784    0.4406 H   0  0  0  0  0  0  0  0  0  0  0  0
   -5.3623   -3.3389    0.4145 H   0  0  0  0  0  0  0  0  0  0  0  0
   -2.2209    0.7393    1.5128 H   0  0  0  0  0  0  0  0  0  0  0  0
    0.2251    0.9825    1.8302 H   0  0  0  0  0  0  0  0  0  0  0  0
    0.9104   -0.6769   -2.8364 H   0  0  0  0  0  0  0  0  0  0  0  0
    3.9708    1.7203   -0.7149 H   0  0  0  0  0  0  0  0  0  0  0  0
    3.0142    1.7283    1.3917 H   0  0  0  0  0  0  0  0  0  0  0  0
    3.1569   -0.0360    1.6291 H   0  0  0  0  0  0  0  0  0  0  0  0
    7.1264   -0.1313   -1.1926 H   0  0  0  0  0  0  0  0  0  0  0  0
    5.6933   -0.3425   -2.2224 H   0  0  0  0  0  0  0  0  0  0  0  0
    6.1915    1.2720   -1.6742 H   0  0  0  0  0  0  0  0  0  0  0  0
    4.6742   -1.5577    1.2259 H   0  0  0  0  0  0  0  0  0  0  0  0
    6.1961   -1.8061    0.4085 H   0  0  0  0  0  0  0  0  0  0  0  0
    4.6825   -2.0100   -0.4932 H   0  0  0  0  0  0  0  0  0  0  0  0
    6.1790    1.6416    0.6229 H   0  0  0  0  0  0  0  0  0  0  0  0
  1  2  1  0
  2  3  1  0
  2  4  1  0
  4  5  2  0
  2  6  1  0
  6  7  2  0
  7  8  1  0
  8  9  2  0
  9 10  1  0
 10 11  2  0
 11 12  1  0
 12 13  2  0
 13 14  1  0
 14 15  1  0
 15 16  2  0
 11 17  1  0
 17 18  1  0
 18 19  1  0
 18 20  1  0
 20 21  1  0
 20 22  1  0
 20 23  1  0
 15  6  1  0
 13  8  1  0
 19 10  1  0
  1 24  1  0
  1 25  1  0
  1 26  1  0
  3 27  1  0
  3 28  1  0
  3 29  1  0
  4 30  1  0
  5 31  1  0
  5 32  1  0
  7 33  1  0
  9 34  1  0
 12 35  1  0
 18 36  1  0
 19 37  1  0
 19 38  1  0
 21 39  1  0
 21 40  1  0
 21 41  1  0
 22 42  1  0
 22 43  1  0
 22 44  1  0
 23 45  1  0
M  END
>  <Name>  (329) 
Chalepin(Rutamarin Alcohol)

>  <PubChem ID>  (329) 
119066

>  <CDB ID>  (329) 
CDB0329

>  <Smiles>  (329) 
CC(C)(C=C)C1=CC2=CC3=C(C=C2OC1=O)OC(C3)C(C)(C)O

>  <Chemical class>  (329) 
7-Oxygenated Coumarins

>  <Natural source>  (329) 
Ruta chalepensis, Ruta graveolens

>  <Molecular Formula>  (329) 
C19H22O4

>  <InChI-Key>  (329) 
JCDLLLXYAICSQV-MRXNPFEDSA-N

>  <Total Molweight>  (329) 
314.38

>  <cLogP>  (329) 
3.8087

>  <cLogS>  (329) 
-4.035

>  <H-Acceptors>  (329) 
4

>  <H-Donors>  (329) 
1

>  <Rotatable Bonds>  (329) 
3

>  <Polar Surface Area>  (329) 
55.76

$$$$
CDB0330
     RDKit          3D

 50 52  0  0  0  0  0  0  0  0999 V2000
   -6.8670   -1.4038   -0.8192 C   0  0  0  0  0  0  0  0  0  0  0  0
   -5.7622   -0.3903   -0.8252 C   0  0  0  0  0  0  0  0  0  0  0  0
   -5.1807   -0.0289   -1.8353 O   0  0  0  0  0  0  0  0  0  0  0  0
   -5.5534    0.0538    0.4419 O   0  0  0  0  0  0  0  0  0  0  0  0
   -4.4720    0.9795    0.7799 C   0  0  0  0  0  0  0  0  0  0  0  0
   -4.8830    1.5048    2.1691 C   0  0  0  0  0  0  0  0  0  0  0  0
   -4.4092    2.1772   -0.1803 C   0  0  0  0  0  0  0  0  0  0  0  0
   -3.1395    0.1892    0.8956 C   0  0  0  0  0  0  0  0  0  0  0  0
   -1.9714    0.9735    1.5273 C   0  0  0  0  0  0  0  0  0  0  0  0
   -0.8405    0.3666    0.7889 C   0  0  0  0  0  0  0  0  0  0  0  0
   -1.3329   -0.3155   -0.3126 C   0  0  0  0  0  0  0  0  0  0  0  0
   -2.6978   -0.2969   -0.4028 O   0  0  0  0  0  0  0  0  0  0  0  0
   -0.5013   -0.9252   -1.2253 C   0  0  0  0  0  0  0  0  0  0  0  0
    0.8684   -0.8398   -0.9839 C   0  0  0  0  0  0  0  0  0  0  0  0
    1.3920   -0.1632    0.1195 C   0  0  0  0  0  0  0  0  0  0  0  0
    0.5228    0.4602    1.0228 C   0  0  0  0  0  0  0  0  0  0  0  0
    2.8351   -0.1260    0.2904 C   0  0  0  0  0  0  0  0  0  0  0  0
    3.6830   -0.7200   -0.5732 C   0  0  0  0  0  0  0  0  0  0  0  0
    3.1139   -1.4171   -1.7728 C   0  0  0  0  0  0  0  0  0  0  0  0
    3.8197   -1.9401   -2.6277 O   0  0  0  0  0  0  0  0  0  0  0  0
    1.7292   -1.4589   -1.9032 O   0  0  0  0  0  0  0  0  0  0  0  0
    5.2238   -0.7014   -0.4158 C   0  0  0  0  0  0  0  0  0  0  0  0
    5.8228   -2.1278   -0.4682 C   0  0  0  0  0  0  0  0  0  0  0  0
    5.8469    0.1415   -1.5517 C   0  0  0  0  0  0  0  0  0  0  0  0
    5.6415   -0.1663    0.9694 C   0  0  0  0  0  0  0  0  0  0  0  0
    6.2842    0.9739    1.2632 C   0  0  0  0  0  0  0  0  0  0  0  0
   -6.6078   -2.2315   -0.1539 H   0  0  0  0  0  0  0  0  0  0  0  0
   -7.8005   -0.9323   -0.5023 H   0  0  0  0  0  0  0  0  0  0  0  0
   -6.9996   -1.8019   -1.8293 H   0  0  0  0  0  0  0  0  0  0  0  0
   -5.8785    1.9633    2.1295 H   0  0  0  0  0  0  0  0  0  0  0  0
   -4.1822    2.2498    2.5583 H   0  0  0  0  0  0  0  0  0  0  0  0
   -4.9516    0.6830    2.8915 H   0  0  0  0  0  0  0  0  0  0  0  0
   -3.8177    2.9991    0.2364 H   0  0  0  0  0  0  0  0  0  0  0  0
   -5.4144    2.5573   -0.3946 H   0  0  0  0  0  0  0  0  0  0  0  0
   -3.9528    1.9158   -1.1393 H   0  0  0  0  0  0  0  0  0  0  0  0
   -3.3285   -0.7168    1.4918 H   0  0  0  0  0  0  0  0  0  0  0  0
   -1.9160    0.8109    2.6073 H   0  0  0  0  0  0  0  0  0  0  0  0
   -2.0120    2.0455    1.3143 H   0  0  0  0  0  0  0  0  0  0  0  0
   -0.8973   -1.4455   -2.0890 H   0  0  0  0  0  0  0  0  0  0  0  0
    0.8982    1.0101    1.8801 H   0  0  0  0  0  0  0  0  0  0  0  0
    3.1942    0.4155    1.1593 H   0  0  0  0  0  0  0  0  0  0  0  0
    5.7953   -2.5622   -1.4718 H   0  0  0  0  0  0  0  0  0  0  0  0
    6.8787   -2.1270   -0.1680 H   0  0  0  0  0  0  0  0  0  0  0  0
    5.2897   -2.8111    0.2042 H   0  0  0  0  0  0  0  0  0  0  0  0
    5.4347    1.1576   -1.5708 H   0  0  0  0  0  0  0  0  0  0  0  0
    5.6689   -0.2963   -2.5393 H   0  0  0  0  0  0  0  0  0  0  0  0
    6.9353    0.2200   -1.4411 H   0  0  0  0  0  0  0  0  0  0  0  0
    5.3772   -0.8116    1.8097 H   0  0  0  0  0  0  0  0  0  0  0  0
    6.5213    1.2213    2.2943 H   0  0  0  0  0  0  0  0  0  0  0  0
    6.5930    1.6881    0.5075 H   0  0  0  0  0  0  0  0  0  0  0  0
  1  2  1  0
  2  3  2  0
  2  4  1  0
  4  5  1  0
  5  6  1  0
  5  7  1  0
  5  8  1  0
  8  9  1  0
  9 10  1  0
 10 11  2  0
 11 12  1  0
 11 13  1  0
 13 14  2  0
 14 15  1  0
 15 16  2  0
 15 17  1  0
 17 18  2  0
 18 19  1  0
 19 20  2  0
 19 21  1  0
 18 22  1  0
 22 23  1  0
 22 24  1  0
 22 25  1  0
 25 26  2  0
 12  8  1  0
 16 10  1  0
 21 14  1  0
  1 27  1  0
  1 28  1  0
  1 29  1  0
  6 30  1  0
  6 31  1  0
  6 32  1  0
  7 33  1  0
  7 34  1  0
  7 35  1  0
  8 36  1  0
  9 37  1  0
  9 38  1  0
 13 39  1  0
 16 40  1  0
 17 41  1  0
 23 42  1  0
 23 43  1  0
 23 44  1  0
 24 45  1  0
 24 46  1  0
 24 47  1  0
 25 48  1  0
 26 49  1  0
 26 50  1  0
M  END
>  <Name>  (330) 
Rutamarin

>  <PubChem ID>  (330) 
26948

>  <CDB ID>  (330) 
CDB0330

>  <Smiles>  (330) 
CC(=O)OC(C)(C)C1CC2=C(O1)C=C3C(=C2)C=C(C(=O)O3)C(C)(C)C=C

>  <Chemical class>  (330) 
7-Oxygenated Coumarins

>  <Natural source>  (330) 
Ruta chalepensis, Ruta graveolens

>  <Molecular Formula>  (330) 
C21H24O5

>  <InChI-Key>  (330) 
AWMHMGFGCLBSAY-GOSISDBHSA-N

>  <Total Molweight>  (330) 
356.417

>  <cLogP>  (330) 
4.2933

>  <cLogS>  (330) 
-4.445

>  <H-Acceptors>  (330) 
5

>  <H-Donors>  (330) 
0

>  <Rotatable Bonds>  (330) 
5

>  <Polar Surface Area>  (330) 
61.83

$$$$
CDB0331
     RDKit          3D

 33 35  0  0  0  0  0  0  0  0999 V2000
   -3.2886    1.0582    0.6281 C   0  0  0  0  0  0  0  0  0  0  0  0
   -2.5425    0.0336   -0.2624 C   0  0  0  0  0  0  0  0  0  0  0  0
   -2.7169    0.5504   -1.7173 C   0  0  0  0  0  0  0  0  0  0  0  0
   -3.1597   -1.3659   -0.2737 C   0  0  0  0  0  0  0  0  0  0  0  0
   -4.2231   -1.7965    0.4200 C   0  0  0  0  0  0  0  0  0  0  0  0
   -1.0629   -0.0531    0.1754 C   0  0  0  0  0  0  0  0  0  0  0  0
   -0.0224    0.2831   -0.6115 C   0  0  0  0  0  0  0  0  0  0  0  0
    1.3589    0.1800   -0.1655 C   0  0  0  0  0  0  0  0  0  0  0  0
    1.6121   -0.2878    1.1183 C   0  0  0  0  0  0  0  0  0  0  0  0
    2.8998   -0.4267    1.6407 C   0  0  0  0  0  0  0  0  0  0  0  0
    3.9320   -0.0621    0.7834 C   0  0  0  0  0  0  0  0  0  0  0  0
    3.7438    0.4125   -0.5110 C   0  0  0  0  0  0  0  0  0  0  0  0
    2.4289    0.5382   -1.0016 C   0  0  0  0  0  0  0  0  0  0  0  0
    5.0454    0.6599   -1.0226 C   0  0  0  0  0  0  0  0  0  0  0  0
    5.9275    0.3247   -0.0210 C   0  0  0  0  0  0  0  0  0  0  0  0
    5.2603   -0.1141    1.0779 O   0  0  0  0  0  0  0  0  0  0  0  0
    0.5437   -0.6458    1.9594 O   0  0  0  0  0  0  0  0  0  0  0  0
   -0.7885   -0.5483    1.5661 C   0  0  0  0  0  0  0  0  0  0  0  0
   -1.6768   -0.8573    2.3519 O   0  0  0  0  0  0  0  0  0  0  0  0
   -3.3529    0.7521    1.6764 H   0  0  0  0  0  0  0  0  0  0  0  0
   -2.7876    2.0338    0.6048 H   0  0  0  0  0  0  0  0  0  0  0  0
   -4.3173    1.2140    0.2802 H   0  0  0  0  0  0  0  0  0  0  0  0
   -2.2169   -0.0975   -2.4481 H   0  0  0  0  0  0  0  0  0  0  0  0
   -3.7769    0.5892   -2.0001 H   0  0  0  0  0  0  0  0  0  0  0  0
   -2.3182    1.5653   -1.8351 H   0  0  0  0  0  0  0  0  0  0  0  0
   -2.6685   -2.0908   -0.9243 H   0  0  0  0  0  0  0  0  0  0  0  0
   -4.7696   -1.1600    1.1076 H   0  0  0  0  0  0  0  0  0  0  0  0
   -4.5604   -2.8249    0.3312 H   0  0  0  0  0  0  0  0  0  0  0  0
   -0.1640    0.6460   -1.6234 H   0  0  0  0  0  0  0  0  0  0  0  0
    3.0882   -0.7917    2.6417 H   0  0  0  0  0  0  0  0  0  0  0  0
    2.2590    0.9059   -2.0090 H   0  0  0  0  0  0  0  0  0  0  0  0
    5.3087    1.0360   -2.0008 H   0  0  0  0  0  0  0  0  0  0  0  0
    7.0053    0.3397    0.0643 H   0  0  0  0  0  0  0  0  0  0  0  0
  1  2  1  0
  2  3  1  0
  2  4  1  0
  4  5  2  0
  2  6  1  0
  6  7  2  0
  7  8  1  0
  8  9  2  0
  9 10  1  0
 10 11  2  0
 11 12  1  0
 12 13  2  0
 12 14  1  0
 14 15  2  0
 15 16  1  0
  9 17  1  0
 17 18  1  0
 18 19  2  0
 18  6  1  0
 13  8  1  0
 16 11  1  0
  1 20  1  0
  1 21  1  0
  1 22  1  0
  3 23  1  0
  3 24  1  0
  3 25  1  0
  4 26  1  0
  5 27  1  0
  5 28  1  0
  7 29  1  0
 10 30  1  0
 13 31  1  0
 14 32  1  0
 15 33  1  0
M  END
>  <Name>  (331) 
Chalepensin (Xylotenin)

>  <PubChem ID>  (331) 
128834

>  <CDB ID>  (331) 
CDB0331

>  <Smiles>  (331) 
CC(C)(C=C)C1=CC2=C(C=C3C(=C2)C=CO3)OC1=O

>  <Chemical class>  (331) 
7-Oxygenated Coumarins

>  <Natural source>  (331) 
Ruta chalepensis, Chloroxylon swietenia

>  <Molecular Formula>  (331) 
C16H14O3

>  <InChI-Key>  (331) 
FYCCCUNGXGKNJV-UHFFFAOYSA-N

>  <Total Molweight>  (331) 
254.284

>  <cLogP>  (331) 
3.8966

>  <cLogS>  (331) 
-4.469

>  <H-Acceptors>  (331) 
3

>  <H-Donors>  (331) 
0

>  <Rotatable Bonds>  (331) 
2

>  <Polar Surface Area>  (331) 
39.44

$$$$
CDB0332
     RDKit          3D

 33 36  0  0  0  0  0  0  0  0999 V2000
   -2.9056    0.5604   -1.0637 C   0  0  0  0  0  0  0  0  0  0  0  0
   -3.1966   -0.5819   -0.1212 C   0  0  0  0  0  0  0  0  0  0  0  0
   -4.1090   -1.6302   -0.7065 C   0  0  0  0  0  0  0  0  0  0  0  0
   -3.3694   -0.2290    1.3346 C   0  0  0  0  0  0  0  0  0  0  0  0
   -2.1754   -1.0504    0.9134 C   0  0  2  0  0  0  0  0  0  0  0  0
   -0.8085   -0.4764    0.9797 C   0  0  0  0  0  0  0  0  0  0  0  0
    0.0431   -0.5694   -0.0590 C   0  0  0  0  0  0  0  0  0  0  0  0
    1.3901   -0.0268   -0.0173 C   0  0  0  0  0  0  0  0  0  0  0  0
    1.8200    0.6011    1.1472 C   0  0  0  0  0  0  0  0  0  0  0  0
    3.0912    1.1625    1.2857 C   0  0  0  0  0  0  0  0  0  0  0  0
    3.9147    1.0530    0.1704 C   0  0  0  0  0  0  0  0  0  0  0  0
    5.1886    1.5249    0.0793 O   0  0  0  0  0  0  0  0  0  0  0  0
    5.6380    1.2155   -1.1647 C   0  0  0  0  0  0  0  0  0  0  0  0
    4.6689    0.5488   -1.8789 C   0  0  0  0  0  0  0  0  0  0  0  0
    3.5429    0.4369   -1.0206 C   0  0  0  0  0  0  0  0  0  0  0  0
    2.2515   -0.1174   -1.1221 C   0  0  0  0  0  0  0  0  0  0  0  0
    0.9642    0.6876    2.2611 O   0  0  0  0  0  0  0  0  0  0  0  0
   -0.3177    0.1499    2.2533 C   0  0  0  0  0  0  0  0  0  0  0  0
   -1.0177    0.1871    3.2612 O   0  0  0  0  0  0  0  0  0  0  0  0
   -3.8416    1.0186   -1.4010 H   0  0  0  0  0  0  0  0  0  0  0  0
   -2.3677    0.1994   -1.9463 H   0  0  0  0  0  0  0  0  0  0  0  0
   -2.3069    1.3492   -0.5965 H   0  0  0  0  0  0  0  0  0  0  0  0
   -3.6468   -2.0834   -1.5896 H   0  0  0  0  0  0  0  0  0  0  0  0
   -5.0624   -1.1830   -1.0065 H   0  0  0  0  0  0  0  0  0  0  0  0
   -4.3256   -2.4317    0.0080 H   0  0  0  0  0  0  0  0  0  0  0  0
   -3.2178    0.7995    1.6467 H   0  0  0  0  0  0  0  0  0  0  0  0
   -4.1428   -0.7289    1.9092 H   0  0  0  0  0  0  0  0  0  0  0  0
   -2.1983   -2.0975    1.2073 H   0  0  0  0  0  0  0  0  0  0  0  0
   -0.2732   -1.0546   -0.9778 H   0  0  0  0  0  0  0  0  0  0  0  0
    3.4199    1.6485    2.1949 H   0  0  0  0  0  0  0  0  0  0  0  0
    6.6482    1.5311   -1.3863 H   0  0  0  0  0  0  0  0  0  0  0  0
    4.7630    0.1881   -2.8931 H   0  0  0  0  0  0  0  0  0  0  0  0
    1.9388   -0.6015   -2.0424 H   0  0  0  0  0  0  0  0  0  0  0  0
  1  2  1  0
  2  3  1  0
  2  4  1  0
  4  5  1  0
  5  6  1  0
  6  7  2  0
  7  8  1  0
  8  9  2  0
  9 10  1  0
 10 11  2  0
 11 12  1  0
 12 13  1  0
 13 14  2  0
 14 15  1  0
 15 16  2  0
  9 17  1  0
 17 18  1  0
 18 19  2  0
  5  2  1  0
 18  6  1  0
 16  8  1  0
 15 11  1  0
  1 20  1  0
  1 21  1  0
  1 22  1  0
  3 23  1  0
  3 24  1  0
  3 25  1  0
  4 26  1  0
  4 27  1  0
  5 28  1  1
  7 29  1  0
 10 30  1  0
 13 31  1  0
 14 32  1  0
 16 33  1  0
M  END
>  <Name>  (332) 
Clausindine (Rutolide)

>  <PubChem ID>  (332) 
170935

>  <CDB ID>  (332) 
CDB0332

>  <Smiles>  (332) 
CC1(C)C[C@@H]1C1=CC2=C(C=C3OC=CC3=C2)OC1=O

>  <Chemical class>  (332) 
7-Oxygenated Coumarins

>  <Natural source>  (332) 
Ruta montana, Clausena indica

>  <Molecular Formula>  (332) 
C16H14O3

>  <InChI-Key>  (332) 
IXLICOBIKMGSAV-GFCCVEGCSA-N

>  <Total Molweight>  (332) 
254.284

>  <cLogP>  (332) 
3.3081

>  <cLogS>  (332) 
-4.506

>  <H-Acceptors>  (332) 
3

>  <H-Donors>  (332) 
0

>  <Rotatable Bonds>  (332) 
1

>  <Polar Surface Area>  (332) 
39.44

$$$$
CDB0333
     RDKit          3D

 37 41  0  0  0  0  0  0  0  0999 V2000
   -2.7818   -2.9272    0.2741 C   0  0  0  0  0  0  0  0  0  0  0  0
   -1.9110   -2.0549   -0.4469 O   0  0  0  0  0  0  0  0  0  0  0  0
   -2.4084   -0.7772   -0.5416 C   0  0  0  0  0  0  0  0  0  0  0  0
   -3.6737   -0.5325   -1.0882 C   0  0  0  0  0  0  0  0  0  0  0  0
   -4.0790    0.7802   -1.1941 C   0  0  0  0  0  0  0  0  0  0  0  0
   -3.2770    1.8234   -0.7958 C   0  0  0  0  0  0  0  0  0  0  0  0
   -2.0190    1.6168   -0.2705 C   0  0  0  0  0  0  0  0  0  0  0  0
   -1.5670    0.2923   -0.1433 C   0  0  0  0  0  0  0  0  0  0  0  0
   -0.2269    0.0307    0.4174 C   0  0  0  0  0  0  0  0  0  0  0  0
    0.8533    0.3562   -0.3107 C   0  0  0  0  0  0  0  0  0  0  0  0
    2.1932    0.0887    0.1889 C   0  0  0  0  0  0  0  0  0  0  0  0
    2.3377   -0.5268    1.4314 C   0  0  0  0  0  0  0  0  0  0  0  0
    3.5810   -0.8288    1.9914 C   0  0  0  0  0  0  0  0  0  0  0  0
    4.6830   -0.4728    1.2214 C   0  0  0  0  0  0  0  0  0  0  0  0
    4.6034    0.1420   -0.0244 C   0  0  0  0  0  0  0  0  0  0  0  0
    3.3316    0.4311   -0.5578 C   0  0  0  0  0  0  0  0  0  0  0  0
    5.9462    0.3225   -0.4504 C   0  0  0  0  0  0  0  0  0  0  0  0
    6.7434   -0.1860    0.5493 C   0  0  0  0  0  0  0  0  0  0  0  0
    5.9852   -0.6701    1.5671 O   0  0  0  0  0  0  0  0  0  0  0  0
    1.2023   -0.8748    2.1928 O   0  0  0  0  0  0  0  0  0  0  0  0
   -0.0930   -0.6135    1.7545 C   0  0  0  0  0  0  0  0  0  0  0  0
   -1.0629   -0.8885    2.4543 O   0  0  0  0  0  0  0  0  0  0  0  0
   -3.8651    3.0339   -0.9911 O   0  0  0  0  0  0  0  0  0  0  0  0
   -5.1352    2.6334   -1.5468 C   0  0  0  0  0  0  0  0  0  0  0  0
   -5.2707    1.2045   -1.6940 O   0  0  0  0  0  0  0  0  0  0  0  0
   -2.1909   -3.7848    0.6096 H   0  0  0  0  0  0  0  0  0  0  0  0
   -3.2071   -2.4430    1.1606 H   0  0  0  0  0  0  0  0  0  0  0  0
   -3.5763   -3.3017   -0.3788 H   0  0  0  0  0  0  0  0  0  0  0  0
   -4.3146   -1.3328   -1.4362 H   0  0  0  0  0  0  0  0  0  0  0  0
   -1.4109    2.4605    0.0379 H   0  0  0  0  0  0  0  0  0  0  0  0
    0.7583    0.8076   -1.2939 H   0  0  0  0  0  0  0  0  0  0  0  0
    3.6871   -1.3063    2.9565 H   0  0  0  0  0  0  0  0  0  0  0  0
    3.2456    0.9084   -1.5294 H   0  0  0  0  0  0  0  0  0  0  0  0
    6.2906    0.7681   -1.3726 H   0  0  0  0  0  0  0  0  0  0  0  0
    7.8127   -0.2747    0.6827 H   0  0  0  0  0  0  0  0  0  0  0  0
   -5.2487    3.0993   -2.5323 H   0  0  0  0  0  0  0  0  0  0  0  0
   -5.9354    2.9965   -0.8915 H   0  0  0  0  0  0  0  0  0  0  0  0
  1  2  1  0
  2  3  1  0
  3  4  1  0
  4  5  2  0
  5  6  1  0
  6  7  2  0
  7  8  1  0
  8  9  1  0
  9 10  2  0
 10 11  1  0
 11 12  2  0
 12 13  1  0
 13 14  2  0
 14 15  1  0
 15 16  2  0
 15 17  1  0
 17 18  2  0
 18 19  1  0
 12 20  1  0
 20 21  1  0
 21 22  2  0
  6 23  1  0
 23 24  1  0
 24 25  1  0
  8  3  2  0
 25  5  1  0
 21  9  1  0
 16 11  1  0
 19 14  1  0
  1 26  1  0
  1 27  1  0
  1 28  1  0
  4 29  1  0
  7 30  1  0
 10 31  1  0
 13 32  1  0
 16 33  1  0
 17 34  1  0
 18 35  1  0
 24 36  1  0
 24 37  1  0
M  END
>  <Name>  (333) 
Pachyrrhizin

>  <PubChem ID>  (333) 
101277

>  <CDB ID>  (333) 
CDB0333

>  <Smiles>  (333) 
COC1=CC2=C(C=C1C3=CC4=C(C=C5C(=C4)C=CO5)OC3=O)OCO2

>  <Chemical class>  (333) 
7-Oxygenated Coumarins

>  <Natural source>  (333) 
Pachyrrhizus erosus

>  <Molecular Formula>  (333) 
C19H12O6

>  <InChI-Key>  (333) 
PENSQRMNZZWMGV-UHFFFAOYSA-N

>  <Total Molweight>  (333) 
336.298

>  <cLogP>  (333) 
3.2456

>  <cLogS>  (333) 
-5.215

>  <H-Acceptors>  (333) 
6

>  <H-Donors>  (333) 
0

>  <Rotatable Bonds>  (333) 
2

>  <Polar Surface Area>  (333) 
67.13

$$$$
CDB0334
     RDKit          3D

 59 61  0  0  0  0  0  0  0  0999 V2000
   -4.7760   -1.5285    2.1627 C   0  0  0  0  0  0  0  0  0  0  0  0
   -4.2455   -1.6163    0.7258 C   0  0  0  0  0  0  0  0  0  0  0  0
   -3.3056   -2.8157    0.6106 C   0  0  0  0  0  0  0  0  0  0  0  0
   -3.5862   -0.2684    0.3439 C   0  0  0  0  0  0  0  0  0  0  0  0
   -3.0546   -0.1006   -1.1144 C   0  0  0  0  0  0  0  0  0  0  0  0
   -2.6261    1.3643   -1.4223 C   0  0  0  0  0  0  0  0  0  0  0  0
   -1.4378    1.7658   -0.5471 C   0  0  0  0  0  0  0  0  0  0  0  0
   -0.4057    0.6782   -0.5117 C   0  0  0  0  0  0  0  0  0  0  0  0
   -0.7245   -0.6239   -0.9105 C   0  0  0  0  0  0  0  0  0  0  0  0
   -1.9589   -1.0049   -1.3569 O   0  0  0  0  0  0  0  0  0  0  0  0
    0.2462   -1.6228   -0.8887 C   0  0  0  0  0  0  0  0  0  0  0  0
    1.5269   -1.3156   -0.4407 C   0  0  0  0  0  0  0  0  0  0  0  0
    1.8656   -0.0409   -0.0196 C   0  0  0  0  0  0  0  0  0  0  0  0
    0.8929    0.9615   -0.0541 C   0  0  0  0  0  0  0  0  0  0  0  0
    3.2202    0.2049    0.4443 C   0  0  0  0  0  0  0  0  0  0  0  0
    4.1580   -0.7632    0.4780 C   0  0  0  0  0  0  0  0  0  0  0  0
    3.7913   -2.1323   -0.0124 C   0  0  0  0  0  0  0  0  0  0  0  0
    4.5977   -3.0543   -0.0599 O   0  0  0  0  0  0  0  0  0  0  0  0
    2.4796   -2.3434   -0.4273 O   0  0  0  0  0  0  0  0  0  0  0  0
    5.6095   -0.5388    0.9689 C   0  0  0  0  0  0  0  0  0  0  0  0
    6.5833   -0.6796   -0.2232 C   0  0  0  0  0  0  0  0  0  0  0  0
    6.0092   -1.5598    2.0614 C   0  0  0  0  0  0  0  0  0  0  0  0
    5.7647    0.8328    1.6571 C   0  0  0  0  0  0  0  0  0  0  0  0
    6.4674    1.8979    1.2435 C   0  0  0  0  0  0  0  0  0  0  0  0
   -3.7355    2.2602   -1.1971 O   0  0  0  0  0  0  0  0  0  0  0  0
   -3.6752    3.4601   -1.8351 C   0  0  0  0  0  0  0  0  0  0  0  0
   -2.7596    3.8386   -2.5500 O   0  0  0  0  0  0  0  0  0  0  0  0
   -4.9003    4.2650   -1.5276 C   0  0  0  0  0  0  0  0  0  0  0  0
   -4.1503   -0.4979   -2.1222 C   0  0  0  0  0  0  0  0  0  0  0  0
   -3.9622   -1.3662    2.8778 H   0  0  0  0  0  0  0  0  0  0  0  0
   -5.4888   -0.7033    2.2656 H   0  0  0  0  0  0  0  0  0  0  0  0
   -5.2952   -2.4511    2.4437 H   0  0  0  0  0  0  0  0  0  0  0  0
   -5.1117   -1.7917    0.0774 H   0  0  0  0  0  0  0  0  0  0  0  0
   -3.7754   -3.7182    1.0170 H   0  0  0  0  0  0  0  0  0  0  0  0
   -3.0591   -3.0326   -0.4321 H   0  0  0  0  0  0  0  0  0  0  0  0
   -2.3743   -2.6463    1.1611 H   0  0  0  0  0  0  0  0  0  0  0  0
   -2.7650   -0.0982    1.0514 H   0  0  0  0  0  0  0  0  0  0  0  0
   -4.3246    0.5212    0.5358 H   0  0  0  0  0  0  0  0  0  0  0  0
   -2.3173    1.4107   -2.4775 H   0  0  0  0  0  0  0  0  0  0  0  0
   -0.9930    2.6892   -0.9371 H   0  0  0  0  0  0  0  0  0  0  0  0
   -1.7690    1.9918    0.4740 H   0  0  0  0  0  0  0  0  0  0  0  0
    0.0039   -2.6309   -1.2111 H   0  0  0  0  0  0  0  0  0  0  0  0
    1.1392    1.9716    0.2673 H   0  0  0  0  0  0  0  0  0  0  0  0
    3.4365    1.2202    0.7599 H   0  0  0  0  0  0  0  0  0  0  0  0
    6.3251    0.0092   -1.0366 H   0  0  0  0  0  0  0  0  0  0  0  0
    7.6176   -0.4743    0.0786 H   0  0  0  0  0  0  0  0  0  0  0  0
    6.5806   -1.6901   -0.6444 H   0  0  0  0  0  0  0  0  0  0  0  0
    6.9590   -1.2823    2.5367 H   0  0  0  0  0  0  0  0  0  0  0  0
    6.1541   -2.5691    1.6651 H   0  0  0  0  0  0  0  0  0  0  0  0
    5.2504   -1.6190    2.8514 H   0  0  0  0  0  0  0  0  0  0  0  0
    5.2313    0.9345    2.6045 H   0  0  0  0  0  0  0  0  0  0  0  0
    7.0329    1.9080    0.3179 H   0  0  0  0  0  0  0  0  0  0  0  0
    6.4913    2.8061    1.8395 H   0  0  0  0  0  0  0  0  0  0  0  0
   -4.9520    4.4655   -0.4546 H   0  0  0  0  0  0  0  0  0  0  0  0
   -5.7908    3.7270   -1.8624 H   0  0  0  0  0  0  0  0  0  0  0  0
   -4.8501    5.2193   -2.0597 H   0  0  0  0  0  0  0  0  0  0  0  0
   -5.0801    0.0551   -1.9546 H   0  0  0  0  0  0  0  0  0  0  0  0
   -4.3664   -1.5706   -2.0799 H   0  0  0  0  0  0  0  0  0  0  0  0
   -3.8178   -0.3076   -3.1496 H   0  0  0  0  0  0  0  0  0  0  0  0
  1  2  1  0
  2  3  1  0
  2  4  1  0
  4  5  1  0
  5  6  1  0
  6  7  1  0
  7  8  1  0
  8  9  2  0
  9 10  1  0
  9 11  1  0
 11 12  2  0
 12 13  1  0
 13 14  2  0
 13 15  1  0
 15 16  2  0
 16 17  1  0
 17 18  2  0
 17 19  1  0
 16 20  1  0
 20 21  1  0
 20 22  1  0
 20 23  1  0
 23 24  2  0
  6 25  1  0
 25 26  1  0
 26 27  2  0
 26 28  1  0
  5 29  1  0
 10  5  1  0
 14  8  1  0
 19 12  1  0
  1 30  1  0
  1 31  1  0
  1 32  1  0
  2 33  1  0
  3 34  1  0
  3 35  1  0
  3 36  1  0
  4 37  1  0
  4 38  1  0
  6 39  1  0
  7 40  1  0
  7 41  1  0
 11 42  1  0
 14 43  1  0
 15 44  1  0
 21 45  1  0
 21 46  1  0
 21 47  1  0
 22 48  1  0
 22 49  1  0
 22 50  1  0
 23 51  1  0
 24 52  1  0
 24 53  1  0
 28 54  1  0
 28 55  1  0
 28 56  1  0
 29 57  1  0
 29 58  1  0
 29 59  1  0
M  END
>  <Name>  (334) 
Shijiaocaolactone A

>  <PubChem ID>  (334) 
164135

>  <CDB ID>  (334) 
CDB0334

>  <Smiles>  (334) 
CC(C)CC1(C(CC2=C(O1)C=C3C(=C2)C=C(C(=O)O3)C(C)(C)C=C)OC(=O)C)C

>  <Chemical class>  (334) 
7-Oxygenated Coumarins

>  <Natural source>  (334) 
Boenninghausenia sessilicarpara

>  <Molecular Formula>  (334) 
C24H30O5

>  <InChI-Key>  (334) 
MAFRBYJWZZFXHI-UHFFFAOYSA-N

>  <Total Molweight>  (334) 
398.497

>  <cLogP>  (334) 
5.3951

>  <cLogS>  (334) 
-5.145

>  <H-Acceptors>  (334) 
5

>  <H-Donors>  (334) 
0

>  <Rotatable Bonds>  (334) 
6

>  <Polar Surface Area>  (334) 
61.83

$$$$
CDB0335
     RDKit          3D

 59 62  0  0  0  0  0  0  0  0999 V2000
   -3.3403   -1.7847   -3.0225 C   0  0  0  0  0  0  0  0  0  0  0  0
   -2.4316   -1.0023   -2.0561 C   0  0  0  0  0  0  0  0  0  0  0  0
   -2.9179    0.4573   -1.9581 C   0  0  0  0  0  0  0  0  0  0  0  0
   -4.2132    0.6099   -1.1695 C   0  0  0  0  0  0  0  0  0  0  0  0
   -4.2670   -0.2921    0.0755 C   0  0  0  0  0  0  0  0  0  0  0  0
   -2.9540   -0.8013    0.3654 O   0  0  0  0  0  0  0  0  0  0  0  0
   -2.4712   -1.6950   -0.6600 C   0  0  0  0  0  0  0  0  0  0  0  0
   -1.1186   -2.2370   -0.2014 C   0  0  0  0  0  0  0  0  0  0  0  0
   -0.0114   -1.3234   -0.6260 C   0  0  0  0  0  0  0  0  0  0  0  0
   -0.0786   -0.7592   -1.8987 C   0  0  0  0  0  0  0  0  0  0  0  0
   -1.1451   -0.9914   -2.7175 O   0  0  0  0  0  0  0  0  0  0  0  0
    0.9695    0.0065   -2.3944 C   0  0  0  0  0  0  0  0  0  0  0  0
    2.0741    0.2322   -1.5791 C   0  0  0  0  0  0  0  0  0  0  0  0
    2.1621   -0.2999   -0.3015 C   0  0  0  0  0  0  0  0  0  0  0  0
    1.1152   -1.0937    0.1757 C   0  0  0  0  0  0  0  0  0  0  0  0
    3.3446   -0.0151    0.4933 C   0  0  0  0  0  0  0  0  0  0  0  0
    4.3587    0.7441    0.0323 C   0  0  0  0  0  0  0  0  0  0  0  0
    4.2728    1.2808   -1.3654 C   0  0  0  0  0  0  0  0  0  0  0  0
    5.1763    1.9314   -1.8787 O   0  0  0  0  0  0  0  0  0  0  0  0
    3.1167    1.0156   -2.0934 O   0  0  0  0  0  0  0  0  0  0  0  0
    5.6285    1.0750    0.8544 C   0  0  0  0  0  0  0  0  0  0  0  0
    6.8515    0.3792    0.2147 C   0  0  0  0  0  0  0  0  0  0  0  0
    5.8947    2.5988    0.9088 C   0  0  0  0  0  0  0  0  0  0  0  0
    5.4641    0.6663    2.3326 C   0  0  0  0  0  0  0  0  0  0  0  0
    6.1133   -0.2926    3.0098 C   0  0  0  0  0  0  0  0  0  0  0  0
   -4.8520    0.4187    1.3351 C   0  0  0  0  0  0  0  0  0  0  0  0
   -6.3204    0.8013    1.1173 C   0  0  0  0  0  0  0  0  0  0  0  0
   -4.7290   -0.4794    2.5735 C   0  0  0  0  0  0  0  0  0  0  0  0
   -4.1251    1.6281    1.5918 O   0  0  0  0  0  0  0  0  0  0  0  0
   -2.9620   -2.8042   -3.1632 H   0  0  0  0  0  0  0  0  0  0  0  0
   -3.3483   -1.3198   -4.0153 H   0  0  0  0  0  0  0  0  0  0  0  0
   -4.3724   -1.8485   -2.6641 H   0  0  0  0  0  0  0  0  0  0  0  0
   -2.1444    1.0641   -1.4677 H   0  0  0  0  0  0  0  0  0  0  0  0
   -3.0288    0.8984   -2.9568 H   0  0  0  0  0  0  0  0  0  0  0  0
   -4.3279    1.6683   -0.9094 H   0  0  0  0  0  0  0  0  0  0  0  0
   -5.0740    0.3775   -1.8088 H   0  0  0  0  0  0  0  0  0  0  0  0
   -4.9105   -1.1563   -0.1413 H   0  0  0  0  0  0  0  0  0  0  0  0
   -3.1683   -2.5436   -0.6646 H   0  0  0  0  0  0  0  0  0  0  0  0
   -1.1110   -2.3681    0.8872 H   0  0  0  0  0  0  0  0  0  0  0  0
   -0.9360   -3.2166   -0.6602 H   0  0  0  0  0  0  0  0  0  0  0  0
    0.9226    0.4262   -3.3937 H   0  0  0  0  0  0  0  0  0  0  0  0
    1.1701   -1.5384    1.1665 H   0  0  0  0  0  0  0  0  0  0  0  0
    3.3636   -0.4519    1.4863 H   0  0  0  0  0  0  0  0  0  0  0  0
    7.7619    0.5504    0.8020 H   0  0  0  0  0  0  0  0  0  0  0  0
    6.7004   -0.7040    0.1330 H   0  0  0  0  0  0  0  0  0  0  0  0
    7.0612    0.7515   -0.7932 H   0  0  0  0  0  0  0  0  0  0  0  0
    6.2414    3.0025   -0.0471 H   0  0  0  0  0  0  0  0  0  0  0  0
    6.6766    2.8401    1.6405 H   0  0  0  0  0  0  0  0  0  0  0  0
    4.9926    3.1531    1.1957 H   0  0  0  0  0  0  0  0  0  0  0  0
    4.7218    1.2431    2.8883 H   0  0  0  0  0  0  0  0  0  0  0  0
    5.8952   -0.4671    4.0598 H   0  0  0  0  0  0  0  0  0  0  0  0
    6.8684   -0.9260    2.5569 H   0  0  0  0  0  0  0  0  0  0  0  0
   -6.7287    1.2978    2.0053 H   0  0  0  0  0  0  0  0  0  0  0  0
   -6.4302    1.5158    0.2946 H   0  0  0  0  0  0  0  0  0  0  0  0
   -6.9366   -0.0772    0.9006 H   0  0  0  0  0  0  0  0  0  0  0  0
   -5.1753    0.0019    3.4515 H   0  0  0  0  0  0  0  0  0  0  0  0
   -3.6795   -0.6617    2.8298 H   0  0  0  0  0  0  0  0  0  0  0  0
   -5.2262   -1.4429    2.4211 H   0  0  0  0  0  0  0  0  0  0  0  0
   -4.3824    1.9573    2.4692 H   0  0  0  0  0  0  0  0  0  0  0  0
  1  2  1  0
  2  3  1  0
  3  4  1  0
  4  5  1  0
  5  6  1  0
  6  7  1  0
  7  8  1  0
  8  9  1  0
  9 10  2  0
 10 11  1  0
 10 12  1  0
 12 13  2  0
 13 14  1  0
 14 15  2  0
 14 16  1  0
 16 17  2  0
 17 18  1  0
 18 19  2  0
 18 20  1  0
 17 21  1  0
 21 22  1  0
 21 23  1  0
 21 24  1  0
 24 25  2  0
  5 26  1  0
 26 27  1  0
 26 28  1  0
 26 29  1  0
  7  2  1  0
 11  2  1  0
 15  9  1  0
 20 13  1  0
  1 30  1  0
  1 31  1  0
  1 32  1  0
  3 33  1  0
  3 34  1  0
  4 35  1  0
  4 36  1  0
  5 37  1  0
  7 38  1  0
  8 39  1  0
  8 40  1  0
 12 41  1  0
 15 42  1  0
 16 43  1  0
 22 44  1  0
 22 45  1  0
 22 46  1  0
 23 47  1  0
 23 48  1  0
 23 49  1  0
 24 50  1  0
 25 51  1  0
 25 52  1  0
 27 53  1  0
 27 54  1  0
 27 55  1  0
 28 56  1  0
 28 57  1  0
 28 58  1  0
 29 59  1  0
M  END
>  <Name>  (335) 
Clausmarin A

>  <PubChem ID>  (335) 
49940

>  <CDB ID>  (335) 
CDB0335

>  <Smiles>  (335) 
CC12CCC(OC1CC3=C(O2)C=C4C(=C3)C=C(C(=O)O4)C(C)(C)C=C)C(C)(C)O

>  <Chemical class>  (335) 
7-Oxygenated Coumarins

>  <Natural source>  (335) 
Clausena pentaphylla

>  <Molecular Formula>  (335) 
C24H30O5

>  <InChI-Key>  (335) 
KQYZOQQWBTXSDF-UHFFFAOYSA-N

>  <Total Molweight>  (335) 
398.497

>  <cLogP>  (335) 
4.3249

>  <cLogS>  (335) 
-4.907

>  <H-Acceptors>  (335) 
5

>  <H-Donors>  (335) 
1

>  <Rotatable Bonds>  (335) 
3

>  <Polar Surface Area>  (335) 
64.99

$$$$
CDB0336
     RDKit          3D

 33 35  0  0  0  0  0  0  0  0999 V2000
   -3.4757   -2.7736    0.8590 C   0  0  0  0  0  0  0  0  0  0  0  0
   -2.4223   -1.7699    0.4926 C   0  0  0  0  0  0  0  0  0  0  0  0
   -1.0759   -2.0073    0.7894 C   0  0  0  0  0  0  0  0  0  0  0  0
   -0.0817   -1.0856    0.4138 C   0  0  0  0  0  0  0  0  0  0  0  0
   -0.4179    0.0978   -0.2497 C   0  0  0  0  0  0  0  0  0  0  0  0
   -1.7703    0.3512   -0.5225 C   0  0  0  0  0  0  0  0  0  0  0  0
   -2.7485   -0.5952   -0.1832 C   0  0  0  0  0  0  0  0  0  0  0  0
   -4.0540   -0.3727   -0.5327 O   0  0  0  0  0  0  0  0  0  0  0  0
   -2.2053    1.4704   -1.1891 O   0  0  0  0  0  0  0  0  0  0  0  0
   -2.4414    2.5400   -0.2668 C   0  0  0  0  0  0  0  0  0  0  0  0
    0.6607    1.0336   -0.6520 C   0  0  0  0  0  0  0  0  0  0  0  0
    0.4270    2.0961   -1.2206 O   0  0  0  0  0  0  0  0  0  0  0  0
    2.0715    0.7025   -0.3635 C   0  0  0  0  0  0  0  0  0  0  0  0
    2.3898   -0.4755    0.3076 C   0  0  0  0  0  0  0  0  0  0  0  0
    1.3259   -1.4025    0.7300 C   0  0  0  0  0  0  0  0  0  0  0  0
    1.6086   -2.4283    1.3380 O   0  0  0  0  0  0  0  0  0  0  0  0
    3.7276   -0.7915    0.5887 C   0  0  0  0  0  0  0  0  0  0  0  0
    4.7490    0.0735    0.1964 C   0  0  0  0  0  0  0  0  0  0  0  0
    4.4374    1.2534   -0.4754 C   0  0  0  0  0  0  0  0  0  0  0  0
    3.1076    1.5651   -0.7528 C   0  0  0  0  0  0  0  0  0  0  0  0
    2.8917    2.7442   -1.4154 O   0  0  0  0  0  0  0  0  0  0  0  0
   -3.8885   -3.2338   -0.0444 H   0  0  0  0  0  0  0  0  0  0  0  0
   -4.2823   -2.2932    1.4223 H   0  0  0  0  0  0  0  0  0  0  0  0
   -3.0670   -3.5709    1.4887 H   0  0  0  0  0  0  0  0  0  0  0  0
   -0.7918   -2.9249    1.3051 H   0  0  0  0  0  0  0  0  0  0  0  0
   -4.0468    0.4001   -1.1299 H   0  0  0  0  0  0  0  0  0  0  0  0
   -3.3351    2.3364    0.3328 H   0  0  0  0  0  0  0  0  0  0  0  0
   -1.5844    2.7198    0.3911 H   0  0  0  0  0  0  0  0  0  0  0  0
   -2.6217    3.4487   -0.8486 H   0  0  0  0  0  0  0  0  0  0  0  0
    3.9779   -1.7125    1.1134 H   0  0  0  0  0  0  0  0  0  0  0  0
    5.7861   -0.1718    0.4138 H   0  0  0  0  0  0  0  0  0  0  0  0
    5.2286    1.9325   -0.7845 H   0  0  0  0  0  0  0  0  0  0  0  0
    1.9214    2.8438   -1.5514 H   0  0  0  0  0  0  0  0  0  0  0  0
  1  2  1  0
  2  3  1  0
  3  4  2  0
  4  5  1  0
  5  6  2  0
  6  7  1  0
  7  8  1  0
  6  9  1  0
  9 10  1  0
  5 11  1  0
 11 12  2  0
 11 13  1  0
 13 14  1  0
 14 15  1  0
 15 16  2  0
 14 17  2  0
 17 18  1  0
 18 19  2  0
 19 20  1  0
 20 21  1  0
  7  2  2  0
 15  4  1  0
 20 13  2  0
  1 22  1  0
  1 23  1  0
  1 24  1  0
  3 25  1  0
  8 26  1  0
 10 27  1  0
 10 28  1  0
 10 29  1  0
 17 30  1  0
 18 31  1  0
 19 32  1  0
 21 33  1  0
M  END
>  <Name>  (336) 
Obtusifolin

>  <PubChem ID>  (336) 
3083575

>  <CDB ID>  (336) 
CDB0336

>  <Smiles>  (336) 
CC1=CC2=C(C(=C1O)OC)C(=O)C3=C(C2=O)C=CC=C3O

>  <Chemical class>  (336) 
7-Oxygenated Coumarins

>  <Natural source>  (336) 
Haplophyllum obtusifolium

>  <Molecular Formula>  (336) 
C16H12O5

>  <InChI-Key>  (336) 
NYRXUBDGDSRBGB-UHFFFAOYSA-N

>  <Total Molweight>  (336) 
284.266

>  <cLogP>  (336) 
2.6159

>  <cLogS>  (336) 
-4.5

>  <H-Acceptors>  (336) 
5

>  <H-Donors>  (336) 
2

>  <Rotatable Bonds>  (336) 
1

>  <Polar Surface Area>  (336) 
83.83

$$$$
CDB0337
     RDKit          3D

 56 58  0  0  0  0  0  0  0  0999 V2000
    7.6987   -1.0757   -0.1796 C   0  0  0  0  0  0  0  0  0  0  0  0
    6.4303   -1.7431    0.2754 C   0  0  0  0  0  0  0  0  0  0  0  0
    5.1861   -1.4181   -0.1302 C   0  0  0  0  0  0  0  0  0  0  0  0
    4.7745   -0.3517   -1.1139 C   0  0  0  0  0  0  0  0  0  0  0  0
    3.8727    0.6913   -0.4904 C   0  0  0  0  0  0  0  0  0  0  0  0
    4.4240    1.8288    0.1195 C   0  0  0  0  0  0  0  0  0  0  0  0
    3.6195    2.8104    0.6995 C   0  0  0  0  0  0  0  0  0  0  0  0
    2.2324    2.6693    0.6808 C   0  0  0  0  0  0  0  0  0  0  0  0
    1.6448    1.5447    0.0875 C   0  0  0  0  0  0  0  0  0  0  0  0
    2.4722    0.5635   -0.4869 C   0  0  0  0  0  0  0  0  0  0  0  0
    1.8592   -0.5199   -1.0647 O   0  0  0  0  0  0  0  0  0  0  0  0
    0.1775    1.3938    0.0917 C   0  0  0  0  0  0  0  0  0  0  0  0
   -0.5610    2.2094   -0.6773 C   0  0  0  0  0  0  0  0  0  0  0  0
   -2.0079    2.0738   -0.7296 C   0  0  0  0  0  0  0  0  0  0  0  0
   -2.6308    1.0729    0.0177 C   0  0  0  0  0  0  0  0  0  0  0  0
   -4.0239    0.8823    0.0109 C   0  0  0  0  0  0  0  0  0  0  0  0
   -4.7766    1.7324   -0.8105 C   0  0  0  0  0  0  0  0  0  0  0  0
   -4.1735    2.7471   -1.5547 C   0  0  0  0  0  0  0  0  0  0  0  0
   -2.7898    2.9190   -1.5164 C   0  0  0  0  0  0  0  0  0  0  0  0
   -6.1329    1.6256   -0.9401 O   0  0  0  0  0  0  0  0  0  0  0  0
   -4.6670   -0.1909    0.8606 C   0  0  0  0  0  0  0  0  0  0  0  0
   -5.0429   -1.4069    0.0554 C   0  0  0  0  0  0  0  0  0  0  0  0
   -6.2484   -2.0008   -0.0553 C   0  0  0  0  0  0  0  0  0  0  0  0
   -7.5091   -1.5665    0.6407 C   0  0  0  0  0  0  0  0  0  0  0  0
   -6.4178   -3.2218   -0.9241 C   0  0  0  0  0  0  0  0  0  0  0  0
   -1.8424    0.2143    0.8167 O   0  0  0  0  0  0  0  0  0  0  0  0
   -0.4575    0.3265    0.9126 C   0  0  0  0  0  0  0  0  0  0  0  0
    0.1822   -0.4079    1.6593 O   0  0  0  0  0  0  0  0  0  0  0  0
    5.7836    1.9802    0.1340 O   0  0  0  0  0  0  0  0  0  0  0  0
    6.6439   -2.8480    1.2781 C   0  0  0  0  0  0  0  0  0  0  0  0
    8.3580   -1.8094   -0.6555 H   0  0  0  0  0  0  0  0  0  0  0  0
    8.2253   -0.6468    0.6797 H   0  0  0  0  0  0  0  0  0  0  0  0
    7.5396   -0.2687   -0.8967 H   0  0  0  0  0  0  0  0  0  0  0  0
    4.3556   -1.9813    0.2941 H   0  0  0  0  0  0  0  0  0  0  0  0
    4.2545   -0.8366   -1.9497 H   0  0  0  0  0  0  0  0  0  0  0  0
    5.6281    0.1408   -1.5883 H   0  0  0  0  0  0  0  0  0  0  0  0
    4.0538    3.6886    1.1677 H   0  0  0  0  0  0  0  0  0  0  0  0
    1.6142    3.4353    1.1436 H   0  0  0  0  0  0  0  0  0  0  0  0
    2.4019   -1.3041   -0.8783 H   0  0  0  0  0  0  0  0  0  0  0  0
   -0.1001    2.9740   -1.2953 H   0  0  0  0  0  0  0  0  0  0  0  0
   -4.7856    3.3971   -2.1751 H   0  0  0  0  0  0  0  0  0  0  0  0
   -2.3374    3.7088   -2.1106 H   0  0  0  0  0  0  0  0  0  0  0  0
   -6.3960    0.7233   -0.6919 H   0  0  0  0  0  0  0  0  0  0  0  0
   -5.5206    0.2528    1.3819 H   0  0  0  0  0  0  0  0  0  0  0  0
   -3.9895   -0.5090    1.6616 H   0  0  0  0  0  0  0  0  0  0  0  0
   -4.2032   -1.8451   -0.4872 H   0  0  0  0  0  0  0  0  0  0  0  0
   -7.9007   -2.3851    1.2539 H   0  0  0  0  0  0  0  0  0  0  0  0
   -7.3709   -0.7074    1.2996 H   0  0  0  0  0  0  0  0  0  0  0  0
   -8.2703   -1.2949   -0.0982 H   0  0  0  0  0  0  0  0  0  0  0  0
   -6.7570   -4.0713   -0.3223 H   0  0  0  0  0  0  0  0  0  0  0  0
   -5.4853   -3.5153   -1.4175 H   0  0  0  0  0  0  0  0  0  0  0  0
   -7.1602   -3.0295   -1.7057 H   0  0  0  0  0  0  0  0  0  0  0  0
    6.0106    2.7523    0.6771 H   0  0  0  0  0  0  0  0  0  0  0  0
    7.2736   -3.6334    0.8475 H   0  0  0  0  0  0  0  0  0  0  0  0
    5.7037   -3.3123    1.5938 H   0  0  0  0  0  0  0  0  0  0  0  0
    7.1379   -2.4568    2.1736 H   0  0  0  0  0  0  0  0  0  0  0  0
  1  2  1  0
  2  3  2  3
  3  4  1  0
  4  5  1  0
  5  6  2  0
  6  7  1  0
  7  8  2  0
  8  9  1  0
  9 10  2  0
 10 11  1  0
  9 12  1  0
 12 13  2  0
 13 14  1  0
 14 15  2  0
 15 16  1  0
 16 17  2  0
 17 18  1  0
 18 19  2  0
 17 20  1  0
 16 21  1  0
 21 22  1  0
 22 23  2  3
 23 24  1  0
 23 25  1  0
 15 26  1  0
 26 27  1  0
 27 28  2  0
  6 29  1  0
  2 30  1  0
 10  5  1  0
 27 12  1  0
 19 14  1  0
  1 31  1  0
  1 32  1  0
  1 33  1  0
  3 34  1  0
  4 35  1  0
  4 36  1  0
  7 37  1  0
  8 38  1  0
 11 39  1  0
 13 40  1  0
 18 41  1  0
 19 42  1  0
 20 43  1  0
 21 44  1  0
 21 45  1  0
 22 46  1  0
 24 47  1  0
 24 48  1  0
 24 49  1  0
 25 50  1  0
 25 51  1  0
 25 52  1  0
 29 53  1  0
 30 54  1  0
 30 55  1  0
 30 56  1  0
M  END
>  <Name>  (337) 
Licocoumarin A

>  <PubChem ID>  (337) 
5324358

>  <CDB ID>  (337) 
CDB0337

>  <Smiles>  (337) 
CC(=CCC1=C(C=CC(=C1O)C2=CC3=C(C(=C(C=C3)O)CC=C(C)C)OC2=O)O)C

>  <Chemical class>  (337) 
7-Oxygenated Coumarins

>  <Natural source>  (337) 
Glycyrrhiza glabra

>  <Molecular Formula>  (337) 
C25H26O5

>  <InChI-Key>  (337) 
UAGJZOLUSRCDEP-UHFFFAOYSA-N

>  <Total Molweight>  (337) 
406.476

>  <cLogP>  (337) 
5.7605

>  <cLogS>  (337) 
-4.317

>  <H-Acceptors>  (337) 
5

>  <H-Donors>  (337) 
3

>  <Rotatable Bonds>  (337) 
5

>  <Polar Surface Area>  (337) 
86.99

$$$$
CDB0338
     RDKit          3D

 42 44  0  0  0  0  0  0  0  0999 V2000
   -5.1035   -1.5653   -0.6548 C   0  0  0  0  0  0  0  0  0  0  0  0
   -4.3263   -0.3184   -0.9775 C   0  0  0  0  0  0  0  0  0  0  0  0
   -2.9875   -0.1817   -0.8944 C   0  0  0  0  0  0  0  0  0  0  0  0
   -1.9700   -1.2003   -0.4551 C   0  0  0  0  0  0  0  0  0  0  0  0
   -1.0848   -0.6858    0.6598 C   0  0  0  0  0  0  0  0  0  0  0  0
    0.2431   -0.3150    0.3636 C   0  0  0  0  0  0  0  0  0  0  0  0
    1.1148    0.1411    1.3634 C   0  0  0  0  0  0  0  0  0  0  0  0
    0.6353    0.2168    2.6683 C   0  0  0  0  0  0  0  0  0  0  0  0
   -0.6719   -0.1355    2.9922 C   0  0  0  0  0  0  0  0  0  0  0  0
   -1.5263   -0.5729    1.9856 C   0  0  0  0  0  0  0  0  0  0  0  0
   -2.8001   -0.8804    2.3693 O   0  0  0  0  0  0  0  0  0  0  0  0
    1.4527    0.6574    3.7244 O   0  0  0  0  0  0  0  0  0  0  0  0
    2.7656    1.0304    3.4987 C   0  0  0  0  0  0  0  0  0  0  0  0
    3.5023    1.4142    4.4002 O   0  0  0  0  0  0  0  0  0  0  0  0
    3.2578    0.9496    2.1158 C   0  0  0  0  0  0  0  0  0  0  0  0
    2.5048    0.5325    1.0856 C   0  0  0  0  0  0  0  0  0  0  0  0
    3.1581    0.5179   -0.2366 C   0  0  0  0  0  0  0  0  0  0  0  0
    3.0275    1.6146   -1.0983 C   0  0  0  0  0  0  0  0  0  0  0  0
    3.6426    1.5975   -2.3509 C   0  0  0  0  0  0  0  0  0  0  0  0
    4.3863    0.4887   -2.7387 C   0  0  0  0  0  0  0  0  0  0  0  0
    4.5272   -0.6086   -1.8948 C   0  0  0  0  0  0  0  0  0  0  0  0
    3.9113   -0.5932   -0.6410 C   0  0  0  0  0  0  0  0  0  0  0  0
    4.9690    0.5166   -3.9707 O   0  0  0  0  0  0  0  0  0  0  0  0
   -5.1828    0.8346   -1.4377 C   0  0  0  0  0  0  0  0  0  0  0  0
   -5.7975   -1.3714    0.1697 H   0  0  0  0  0  0  0  0  0  0  0  0
   -5.6848   -1.8819   -1.5274 H   0  0  0  0  0  0  0  0  0  0  0  0
   -4.4751   -2.4087   -0.3629 H   0  0  0  0  0  0  0  0  0  0  0  0
   -2.5523    0.7775   -1.1802 H   0  0  0  0  0  0  0  0  0  0  0  0
   -2.4191   -2.1425   -0.1282 H   0  0  0  0  0  0  0  0  0  0  0  0
   -1.3552   -1.4598   -1.3264 H   0  0  0  0  0  0  0  0  0  0  0  0
    0.5941   -0.3919   -0.6645 H   0  0  0  0  0  0  0  0  0  0  0  0
   -1.0250   -0.0624    4.0165 H   0  0  0  0  0  0  0  0  0  0  0  0
   -3.3755   -0.8602    1.5865 H   0  0  0  0  0  0  0  0  0  0  0  0
    4.2904    1.2592    1.9907 H   0  0  0  0  0  0  0  0  0  0  0  0
    2.4473    2.4854   -0.8017 H   0  0  0  0  0  0  0  0  0  0  0  0
    3.5433    2.4466   -3.0214 H   0  0  0  0  0  0  0  0  0  0  0  0
    5.1061   -1.4774   -2.1918 H   0  0  0  0  0  0  0  0  0  0  0  0
    4.0193   -1.4529    0.0170 H   0  0  0  0  0  0  0  0  0  0  0  0
    5.4683   -0.3066   -4.0991 H   0  0  0  0  0  0  0  0  0  0  0  0
   -5.9051    1.1032   -0.6598 H   0  0  0  0  0  0  0  0  0  0  0  0
   -5.7324    0.5605   -2.3442 H   0  0  0  0  0  0  0  0  0  0  0  0
   -4.5921    1.7283   -1.6647 H   0  0  0  0  0  0  0  0  0  0  0  0
  1  2  1  0
  2  3  2  3
  3  4  1  0
  4  5  1  0
  5  6  1  0
  6  7  2  0
  7  8  1  0
  8  9  2  0
  9 10  1  0
 10 11  1  0
  8 12  1  0
 12 13  1  0
 13 14  2  0
 13 15  1  0
 15 16  2  0
 16 17  1  0
 17 18  1  0
 18 19  2  0
 19 20  1  0
 20 21  2  0
 21 22  1  0
 20 23  1  0
  2 24  1  0
 10  5  2  0
 16  7  1  0
 22 17  2  0
  1 25  1  0
  1 26  1  0
  1 27  1  0
  3 28  1  0
  4 29  1  0
  4 30  1  0
  6 31  1  0
  9 32  1  0
 11 33  1  0
 15 34  1  0
 18 35  1  0
 19 36  1  0
 21 37  1  0
 22 38  1  0
 23 39  1  0
 24 40  1  0
 24 41  1  0
 24 42  1  0
M  END
>  <Name>  (338) 
Inflacoumarin A

>  <PubChem ID>  (338) 
50218733

>  <CDB ID>  (338) 
CDB0338

>  <Smiles>  (338) 
CC(=CCC1=CC2=C(C=C1O)OC(=O)C=C2C3=CC=C(C=C3)O)C

>  <Chemical class>  (338) 
7-Oxygenated Coumarins

>  <Natural source>  (338) 
Glycyrrhiza infiata

>  <Molecular Formula>  (338) 
C20H18O4

>  <InChI-Key>  (338) 
RNBLSJGPSGNSIN-UHFFFAOYSA-N

>  <Total Molweight>  (338) 
322.359

>  <cLogP>  (338) 
4.3266

>  <cLogS>  (338) 
-3.922

>  <H-Acceptors>  (338) 
4

>  <H-Donors>  (338) 
2

>  <Rotatable Bonds>  (338) 
3

>  <Polar Surface Area>  (338) 
66.76

$$$$
CDB0339
     RDKit          3D

 28 31  0  0  0  0  0  0  0  0999 V2000
    4.1937   -0.4046    0.4152 C   0  0  0  0  0  0  0  0  0  0  0  0
    4.4906    0.8441   -0.0984 C   0  0  0  0  0  0  0  0  0  0  0  0
    3.4485    1.6693   -0.5096 C   0  0  0  0  0  0  0  0  0  0  0  0
    2.1179    1.2734   -0.4185 C   0  0  0  0  0  0  0  0  0  0  0  0
    1.7732    0.0103    0.0984 C   0  0  0  0  0  0  0  0  0  0  0  0
    2.8598   -0.8120    0.5110 C   0  0  0  0  0  0  0  0  0  0  0  0
    0.3638   -0.3376    0.1646 C   0  0  0  0  0  0  0  0  0  0  0  0
   -0.5611    0.6290   -0.2999 C   0  0  0  0  0  0  0  0  0  0  0  0
   -1.9418    0.3758   -0.2723 C   0  0  0  0  0  0  0  0  0  0  0  0
   -2.4205   -0.8350    0.2145 C   0  0  0  0  0  0  0  0  0  0  0  0
   -1.5636   -1.8128    0.6798 C   0  0  0  0  0  0  0  0  0  0  0  0
   -0.1926   -1.5637    0.6534 C   0  0  0  0  0  0  0  0  0  0  0  0
    0.6248   -2.5593    1.1240 O   0  0  0  0  0  0  0  0  0  0  0  0
   -3.7985   -1.1256    0.2582 O   0  0  0  0  0  0  0  0  0  0  0  0
   -4.7479   -0.2149   -0.1839 C   0  0  0  0  0  0  0  0  0  0  0  0
   -5.9491   -0.4516   -0.1530 O   0  0  0  0  0  0  0  0  0  0  0  0
   -4.2389    1.0649   -0.6984 C   0  0  0  0  0  0  0  0  0  0  0  0
   -2.9336    1.3475   -0.7428 C   0  0  0  0  0  0  0  0  0  0  0  0
   -0.1380    1.8066   -0.7759 N   0  0  0  0  0  0  0  0  0  0  0  0
    1.1888    2.1288   -0.8359 N   0  0  0  0  0  0  0  0  0  0  0  0
    4.9900   -1.0681    0.7433 H   0  0  0  0  0  0  0  0  0  0  0  0
    5.5209    1.1784   -0.1807 H   0  0  0  0  0  0  0  0  0  0  0  0
    3.6779    2.6530   -0.9144 H   0  0  0  0  0  0  0  0  0  0  0  0
    2.6889   -1.8017    0.9217 H   0  0  0  0  0  0  0  0  0  0  0  0
   -1.9712   -2.7469    1.0532 H   0  0  0  0  0  0  0  0  0  0  0  0
    0.0932   -3.3191    1.4161 H   0  0  0  0  0  0  0  0  0  0  0  0
   -4.9871    1.7694   -1.0412 H   0  0  0  0  0  0  0  0  0  0  0  0
   -2.5881    2.3025   -1.1287 H   0  0  0  0  0  0  0  0  0  0  0  0
  1  2  2  0
  2  3  1  0
  3  4  2  0
  4  5  1  0
  5  6  2  0
  5  7  1  0
  7  8  1  0
  8  9  2  0
  9 10  1  0
 10 11  2  0
 11 12  1  0
 12 13  1  0
 10 14  1  0
 14 15  1  0
 15 16  2  0
 15 17  1  0
 17 18  2  0
  8 19  1  0
 19 20  2  0
  6  1  1  0
 20  4  1  0
 12  7  2  0
 18  9  1  0
  1 21  1  0
  2 22  1  0
  3 23  1  0
  6 24  1  0
 11 25  1  0
 13 26  1  0
 17 27  1  0
 18 28  1  0
M  END
>  <Name>  (339) 
Necatorin

>  <PubChem ID>  (339) 
135554414

>  <CDB ID>  (339) 
CDB0339

>  <Smiles>  (339) 
C1=CC=C2C(=C1)C3=C(C4=C(C=C3O)OC(=O)C=C4)N=N2

>  <Chemical class>  (339) 
7-Oxygenated Coumarins

>  <Natural source>  (339) 
Lactarias necator

>  <Molecular Formula>  (339) 
C15H8N2O3

>  <InChI-Key>  (339) 
WNQBVKOXDIYRFH-UHFFFAOYSA-N

>  <Total Molweight>  (339) 
264.24

>  <cLogP>  (339) 
1.9557

>  <cLogS>  (339) 
-3.83

>  <H-Acceptors>  (339) 
5

>  <H-Donors>  (339) 
1

>  <Rotatable Bonds>  (339) 
0

>  <Polar Surface Area>  (339) 
72.31

$$$$
CDB0340
     RDKit          3D

 34 36  0  0  0  0  0  0  0  0999 V2000
    1.8109   -0.3418    1.4185 C   0  0  0  0  0  0  0  0  0  0  0  0
    2.2395    0.2859    0.0839 C   0  0  0  0  0  0  0  0  0  0  0  0
    2.9568    1.6154    0.3595 C   0  0  0  0  0  0  0  0  0  0  0  0
    3.2072   -0.6803   -0.6204 C   0  0  0  0  0  0  0  0  0  0  0  0
    1.0794    0.5664   -0.8862 C   0  0  0  0  0  0  0  0  0  0  0  0
    1.2491    0.9554   -2.0410 O   0  0  0  0  0  0  0  0  0  0  0  0
   -0.3037    0.3754   -0.4482 C   0  0  0  0  0  0  0  0  0  0  0  0
   -1.0194   -0.7895   -0.7403 C   0  0  0  0  0  0  0  0  0  0  0  0
   -2.3523   -0.9503   -0.3550 C   0  0  0  0  0  0  0  0  0  0  0  0
   -3.0105    0.0734    0.3479 C   0  0  0  0  0  0  0  0  0  0  0  0
   -2.3061    1.2549    0.6572 C   0  0  0  0  0  0  0  0  0  0  0  0
   -0.9793    1.3720    0.2496 C   0  0  0  0  0  0  0  0  0  0  0  0
   -0.4749    2.5757    0.6435 O   0  0  0  0  0  0  0  0  0  0  0  0
   -1.4698    3.2337    1.2918 C   0  0  0  0  0  0  0  0  0  0  0  0
   -2.6122    2.4681    1.3295 C   0  0  0  0  0  0  0  0  0  0  0  0
   -3.0409   -2.1868   -0.6951 C   0  0  0  0  0  0  0  0  0  0  0  0
   -2.3887   -3.1517   -1.3502 C   0  0  0  0  0  0  0  0  0  0  0  0
   -0.9764   -3.0233   -1.7459 C   0  0  0  0  0  0  0  0  0  0  0  0
   -0.3996   -3.9402   -2.3171 O   0  0  0  0  0  0  0  0  0  0  0  0
   -0.3481   -1.8287   -1.4251 O   0  0  0  0  0  0  0  0  0  0  0  0
    1.2796   -1.2878    1.2660 H   0  0  0  0  0  0  0  0  0  0  0  0
    1.1534    0.3237    1.9882 H   0  0  0  0  0  0  0  0  0  0  0  0
    2.6813   -0.5535    2.0505 H   0  0  0  0  0  0  0  0  0  0  0  0
    2.2913    2.3283    0.8585 H   0  0  0  0  0  0  0  0  0  0  0  0
    3.2984    2.0868   -0.5693 H   0  0  0  0  0  0  0  0  0  0  0  0
    3.8331    1.4690    1.0009 H   0  0  0  0  0  0  0  0  0  0  0  0
    2.7094   -1.6259   -0.8645 H   0  0  0  0  0  0  0  0  0  0  0  0
    4.0734   -0.9076    0.0110 H   0  0  0  0  0  0  0  0  0  0  0  0
    3.5836   -0.2597   -1.5600 H   0  0  0  0  0  0  0  0  0  0  0  0
   -4.0478   -0.0332    0.6539 H   0  0  0  0  0  0  0  0  0  0  0  0
   -1.2147    4.2182    1.6599 H   0  0  0  0  0  0  0  0  0  0  0  0
   -3.5511    2.7520    1.7838 H   0  0  0  0  0  0  0  0  0  0  0  0
   -4.0818   -2.3096   -0.4147 H   0  0  0  0  0  0  0  0  0  0  0  0
   -2.8688   -4.0845   -1.6209 H   0  0  0  0  0  0  0  0  0  0  0  0
  1  2  1  0
  2  3  1  0
  2  4  1  0
  2  5  1  0
  5  6  2  0
  5  7  1  0
  7  8  1  0
  8  9  2  0
  9 10  1  0
 10 11  2  0
 11 12  1  0
 12 13  1  0
 13 14  1  0
 14 15  2  0
  9 16  1  0
 16 17  2  0
 17 18  1  0
 18 19  2  0
 18 20  1  0
 12  7  2  0
 20  8  1  0
 15 11  1  0
  1 21  1  0
  1 22  1  0
  1 23  1  0
  3 24  1  0
  3 25  1  0
  3 26  1  0
  4 27  1  0
  4 28  1  0
  4 29  1  0
 10 30  1  0
 14 31  1  0
 15 32  1  0
 16 33  1  0
 17 34  1  0
M  END
>  <Name>  (340) 
Swietenone

>  <PubChem ID>  (340) 
85847512

>  <CDB ID>  (340) 
CDB0340

>  <Smiles>  (340) 
CC(C)(C)C(=O)C1=C2C(=CC3=C1OC=C3)C=CC(=O)O2

>  <Chemical class>  (340) 
7-Oxygenated Coumarins

>  <Natural source>  (340) 
Chloroxylon slvietenia

>  <Molecular Formula>  (340) 
C16H14O4

>  <InChI-Key>  (340) 
JNRHTGMSAIBCNM-UHFFFAOYSA-N

>  <Total Molweight>  (340) 
270.283

>  <cLogP>  (340) 
3.0587

>  <cLogS>  (340) 
-4.82

>  <H-Acceptors>  (340) 
4

>  <H-Donors>  (340) 
0

>  <Rotatable Bonds>  (340) 
2

>  <Polar Surface Area>  (340) 
56.51

$$$$
CDB0341
     RDKit          3D

 33 35  0  0  0  0  0  0  0  0999 V2000
    3.0402   -1.5945    0.5767 C   0  0  0  0  0  0  0  0  0  0  0  0
    2.9141   -0.2642   -0.1142 C   0  0  0  0  0  0  0  0  0  0  0  0
    2.0080    0.6886    0.1834 C   0  0  0  0  0  0  0  0  0  0  0  0
    0.9463    0.6693    1.2507 C   0  0  0  0  0  0  0  0  0  0  0  0
   -0.4398    0.6402    0.6681 C   0  0  0  0  0  0  0  0  0  0  0  0
   -1.0731   -0.5521    0.2647 C   0  0  0  0  0  0  0  0  0  0  0  0
   -2.3516   -0.5949   -0.3031 C   0  0  0  0  0  0  0  0  0  0  0  0
   -3.0701    0.5926   -0.4957 C   0  0  0  0  0  0  0  0  0  0  0  0
   -2.4777    1.8101   -0.1127 C   0  0  0  0  0  0  0  0  0  0  0  0
   -1.2027    1.7930    0.4451 C   0  0  0  0  0  0  0  0  0  0  0  0
   -0.8100    3.0671    0.7386 O   0  0  0  0  0  0  0  0  0  0  0  0
   -1.8227    3.8946    0.3764 C   0  0  0  0  0  0  0  0  0  0  0  0
   -2.8692    3.1753   -0.1505 C   0  0  0  0  0  0  0  0  0  0  0  0
   -2.9153   -1.8801   -0.6909 C   0  0  0  0  0  0  0  0  0  0  0  0
   -2.2109   -3.0002   -0.5063 C   0  0  0  0  0  0  0  0  0  0  0  0
   -0.8649   -2.9955    0.0879 C   0  0  0  0  0  0  0  0  0  0  0  0
   -0.2436   -4.0398    0.2456 O   0  0  0  0  0  0  0  0  0  0  0  0
   -0.3556   -1.7608    0.4581 O   0  0  0  0  0  0  0  0  0  0  0  0
    3.9073   -0.0537   -1.2276 C   0  0  0  0  0  0  0  0  0  0  0  0
    2.8765   -2.4061   -0.1403 H   0  0  0  0  0  0  0  0  0  0  0  0
    2.3304   -1.7336    1.3939 H   0  0  0  0  0  0  0  0  0  0  0  0
    4.0452   -1.7046    0.9976 H   0  0  0  0  0  0  0  0  0  0  0  0
    2.0223    1.6118   -0.3971 H   0  0  0  0  0  0  0  0  0  0  0  0
    1.0657   -0.1578    1.9564 H   0  0  0  0  0  0  0  0  0  0  0  0
    1.0659    1.5742    1.8602 H   0  0  0  0  0  0  0  0  0  0  0  0
   -4.0631    0.5861   -0.9349 H   0  0  0  0  0  0  0  0  0  0  0  0
   -1.6503    4.9472    0.5532 H   0  0  0  0  0  0  0  0  0  0  0  0
   -3.7993    3.5839   -0.5188 H   0  0  0  0  0  0  0  0  0  0  0  0
   -3.9061   -1.9115   -1.1312 H   0  0  0  0  0  0  0  0  0  0  0  0
   -2.5985   -3.9722   -0.7857 H   0  0  0  0  0  0  0  0  0  0  0  0
    4.9294   -0.1059   -0.8385 H   0  0  0  0  0  0  0  0  0  0  0  0
    3.7869    0.9195   -1.7150 H   0  0  0  0  0  0  0  0  0  0  0  0
    3.7862   -0.8260   -1.9943 H   0  0  0  0  0  0  0  0  0  0  0  0
  1  2  1  0
  2  3  2  3
  3  4  1  0
  4  5  1  0
  5  6  1  0
  6  7  2  0
  7  8  1  0
  8  9  2  0
  9 10  1  0
 10 11  1  0
 11 12  1  0
 12 13  2  0
  7 14  1  0
 14 15  2  0
 15 16  1  0
 16 17  2  0
 16 18  1  0
  2 19  1  0
 10  5  2  0
 18  6  1  0
 13  9  1  0
  1 20  1  0
  1 21  1  0
  1 22  1  0
  3 23  1  0
  4 24  1  0
  4 25  1  0
  8 26  1  0
 12 27  1  0
 13 28  1  0
 14 29  1  0
 15 30  1  0
 19 31  1  0
 19 32  1  0
 19 33  1  0
M  END
>  <Name>  (341) 
Swietenocoumarin A

>  <PubChem ID>  (341) 
71439313

>  <CDB ID>  (341) 
CDB0341

>  <Smiles>  (341) 
CC(=CCC1=C2C(=CC3=C1OC=C3)C=CC(=O)O2)C

>  <Chemical class>  (341) 
7-Oxygenated Coumarins

>  <Natural source>  (341) 
Chloroxylon swietenia

>  <Molecular Formula>  (341) 
C16H14O3

>  <InChI-Key>  (341) 
QDZRRYXCAAHVGW-UHFFFAOYSA-N

>  <Total Molweight>  (341) 
254.284

>  <cLogP>  (341) 
3.9715

>  <cLogS>  (341) 
-4.468

>  <H-Acceptors>  (341) 
3

>  <H-Donors>  (341) 
0

>  <Rotatable Bonds>  (341) 
2

>  <Polar Surface Area>  (341) 
39.44

$$$$
CDB0342
     RDKit          3D

 34 36  0  0  0  0  0  0  0  0999 V2000
    3.8441   -0.5976   -1.2060 C   0  0  0  0  0  0  0  0  0  0  0  0
    3.1715   -0.3717    0.1476 C   0  0  0  0  0  0  0  0  0  0  0  0
    3.6015   -1.4508    1.1447 C   0  0  0  0  0  0  0  0  0  0  0  0
    1.6679   -0.3716   -0.0112 C   0  0  0  0  0  0  0  0  0  0  0  0
    0.8560    0.6960    0.0828 C   0  0  0  0  0  0  0  0  0  0  0  0
   -0.5977    0.6422   -0.0906 C   0  0  0  0  0  0  0  0  0  0  0  0
   -1.4764   -0.3316    0.4202 C   0  0  0  0  0  0  0  0  0  0  0  0
   -2.8615   -0.2858    0.2220 C   0  0  0  0  0  0  0  0  0  0  0  0
   -3.4323    0.7711   -0.5015 C   0  0  0  0  0  0  0  0  0  0  0  0
   -2.5916    1.7805   -1.0072 C   0  0  0  0  0  0  0  0  0  0  0  0
   -1.2190    1.6898   -0.7850 C   0  0  0  0  0  0  0  0  0  0  0  0
   -0.5927    2.7661   -1.3509 O   0  0  0  0  0  0  0  0  0  0  0  0
   -1.5491    3.5336   -1.9310 C   0  0  0  0  0  0  0  0  0  0  0  0
   -2.7919    2.9749   -1.7505 C   0  0  0  0  0  0  0  0  0  0  0  0
   -3.6976   -1.3396    0.7803 C   0  0  0  0  0  0  0  0  0  0  0  0
   -3.1421   -2.3295    1.4845 C   0  0  0  0  0  0  0  0  0  0  0  0
   -1.6936   -2.4046    1.7282 C   0  0  0  0  0  0  0  0  0  0  0  0
   -1.2116   -3.3253    2.3769 O   0  0  0  0  0  0  0  0  0  0  0  0
   -0.9212   -1.3895    1.1867 O   0  0  0  0  0  0  0  0  0  0  0  0
    3.6200    0.8880    0.6451 O   0  0  0  0  0  0  0  0  0  0  0  0
    3.5782    0.1964   -1.9142 H   0  0  0  0  0  0  0  0  0  0  0  0
    4.9356   -0.5687   -1.1079 H   0  0  0  0  0  0  0  0  0  0  0  0
    3.5629   -1.5602   -1.6469 H   0  0  0  0  0  0  0  0  0  0  0  0
    4.6859   -1.4236    1.3031 H   0  0  0  0  0  0  0  0  0  0  0  0
    3.3277   -2.4551    0.8032 H   0  0  0  0  0  0  0  0  0  0  0  0
    3.1419   -1.2856    2.1266 H   0  0  0  0  0  0  0  0  0  0  0  0
    1.2382   -1.3452   -0.2432 H   0  0  0  0  0  0  0  0  0  0  0  0
    1.2726    1.6879    0.2483 H   0  0  0  0  0  0  0  0  0  0  0  0
   -4.5045    0.8267   -0.6661 H   0  0  0  0  0  0  0  0  0  0  0  0
   -1.1930    4.4277   -2.4239 H   0  0  0  0  0  0  0  0  0  0  0  0
   -3.7278    3.3790   -2.1092 H   0  0  0  0  0  0  0  0  0  0  0  0
   -4.7695   -1.3071    0.6164 H   0  0  0  0  0  0  0  0  0  0  0  0
   -3.7342   -3.1287    1.9135 H   0  0  0  0  0  0  0  0  0  0  0  0
    3.2036    1.0119    1.5150 H   0  0  0  0  0  0  0  0  0  0  0  0
  1  2  1  0
  2  3  1  0
  2  4  1  0
  4  5  2  3
  5  6  1  0
  6  7  1  0
  7  8  2  0
  8  9  1  0
  9 10  2  0
 10 11  1  0
 11 12  1  0
 12 13  1  0
 13 14  2  0
  8 15  1  0
 15 16  2  0
 16 17  1  0
 17 18  2  0
 17 19  1  0
  2 20  1  0
 11  6  2  0
 19  7  1  0
 14 10  1  0
  1 21  1  0
  1 22  1  0
  1 23  1  0
  3 24  1  0
  3 25  1  0
  3 26  1  0
  4 27  1  0
  5 28  1  0
  9 29  1  0
 13 30  1  0
 14 31  1  0
 15 32  1  0
 16 33  1  0
 20 34  1  0
M  END
>  <Name>  (342) 
Swietenocoumarin H

>  <PubChem ID>  (342) 
26211019

>  <CDB ID>  (342) 
CDB0342

>  <Smiles>  (342) 
CC(C)(C=CC1=C2C(=CC3=C1OC=C3)C=CC(=O)O2)O

>  <Chemical class>  (342) 
7-Oxygenated Coumarins

>  <Natural source>  (342) 
Chloroxylon swietenia

>  <Molecular Formula>  (342) 
C16H14O4

>  <InChI-Key>  (342) 
YCWBXVBPBPUAQF-UHFFFAOYSA-N

>  <Total Molweight>  (342) 
270.283

>  <cLogP>  (342) 
2.8528

>  <cLogS>  (342) 
-4.417

>  <H-Acceptors>  (342) 
4

>  <H-Donors>  (342) 
1

>  <Rotatable Bonds>  (342) 
2

>  <Polar Surface Area>  (342) 
59.67

$$$$
CDB0343
     RDKit          3D

 34 37  0  0  0  0  0  0  0  0999 V2000
    3.9794    0.9682   -1.2523 C   0  0  0  0  0  0  0  0  0  0  0  0
    3.1907    0.4228   -0.1021 C   0  0  0  0  0  0  0  0  0  0  0  0
    3.8582    0.4569    1.2370 C   0  0  0  0  0  0  0  0  0  0  0  0
    2.5269   -0.8168   -0.3922 O   0  0  0  0  0  0  0  0  0  0  0  0
    1.6782    0.3302   -0.2370 C   0  0  1  0  0  0  0  0  0  0  0  0
    0.7572    0.2905    0.9444 C   0  0  0  0  0  0  0  0  0  0  0  0
   -0.6031   -0.2147    0.5478 C   0  0  0  0  0  0  0  0  0  0  0  0
   -1.0192   -1.5359    0.7510 C   0  0  0  0  0  0  0  0  0  0  0  0
   -0.2745   -2.5153    1.3412 O   0  0  0  0  0  0  0  0  0  0  0  0
   -1.0251   -3.6455    1.3469 C   0  0  0  0  0  0  0  0  0  0  0  0
   -2.2527   -3.4126    0.7735 C   0  0  0  0  0  0  0  0  0  0  0  0
   -2.2610   -2.0464    0.3835 C   0  0  0  0  0  0  0  0  0  0  0  0
   -3.1898   -1.1945   -0.2424 C   0  0  0  0  0  0  0  0  0  0  0  0
   -2.8292    0.1394   -0.4740 C   0  0  0  0  0  0  0  0  0  0  0  0
   -1.5660    0.5977   -0.0834 C   0  0  0  0  0  0  0  0  0  0  0  0
   -1.2073    1.9495   -0.3252 O   0  0  0  0  0  0  0  0  0  0  0  0
   -2.0675    2.8456   -0.9427 C   0  0  0  0  0  0  0  0  0  0  0  0
   -1.7589    4.0116   -1.1568 O   0  0  0  0  0  0  0  0  0  0  0  0
   -3.3871    2.3282   -1.3364 C   0  0  0  0  0  0  0  0  0  0  0  0
   -3.7521    1.0613   -1.1204 C   0  0  0  0  0  0  0  0  0  0  0  0
    4.9338    0.4406   -1.3492 H   0  0  0  0  0  0  0  0  0  0  0  0
    3.4432    0.8656   -2.2019 H   0  0  0  0  0  0  0  0  0  0  0  0
    4.1880    2.0315   -1.0969 H   0  0  0  0  0  0  0  0  0  0  0  0
    4.9066    0.1516    1.1524 H   0  0  0  0  0  0  0  0  0  0  0  0
    3.8318    1.4726    1.6439 H   0  0  0  0  0  0  0  0  0  0  0  0
    3.3858   -0.2139    1.9608 H   0  0  0  0  0  0  0  0  0  0  0  0
    1.2301    0.7667   -1.1215 H   0  0  0  0  0  0  0  0  0  0  0  0
    0.6673    1.2949    1.3745 H   0  0  0  0  0  0  0  0  0  0  0  0
    1.1567   -0.3455    1.7421 H   0  0  0  0  0  0  0  0  0  0  0  0
   -0.5543   -4.5147    1.7848 H   0  0  0  0  0  0  0  0  0  0  0  0
   -3.0437   -4.1382    0.6495 H   0  0  0  0  0  0  0  0  0  0  0  0
   -4.1628   -1.5757   -0.5372 H   0  0  0  0  0  0  0  0  0  0  0  0
   -4.0484    3.0399   -1.8154 H   0  0  0  0  0  0  0  0  0  0  0  0
   -4.7313    0.7045   -1.4214 H   0  0  0  0  0  0  0  0  0  0  0  0
  1  2  1  0
  2  3  1  0
  2  4  1  0
  4  5  1  0
  5  6  1  0
  6  7  1  0
  7  8  2  0
  8  9  1  0
  9 10  1  0
 10 11  2  0
 11 12  1  0
 12 13  2  0
 13 14  1  0
 14 15  2  0
 15 16  1  0
 16 17  1  0
 17 18  2  0
 17 19  1  0
 19 20  2  0
  5  2  1  0
 15  7  1  0
 12  8  1  0
 20 14  1  0
  1 21  1  0
  1 22  1  0
  1 23  1  0
  3 24  1  0
  3 25  1  0
  3 26  1  0
  5 27  1  6
  6 28  1  0
  6 29  1  0
 10 30  1  0
 11 31  1  0
 13 32  1  0
 19 33  1  0
 20 34  1  0
M  END
>  <Name>  (343) 
Swietenocoumarin C

>  <PubChem ID>  (343) 
71439314

>  <CDB ID>  (343) 
CDB0343

>  <Smiles>  (343) 
CC1(C)O[C@H]1CC1=C2OC=CC2=CC2=C1OC(=O)C=C2

>  <Chemical class>  (343) 
7-Oxygenated Coumarins

>  <Natural source>  (343) 
Chloroxylon swietenia

>  <Molecular Formula>  (343) 
C16H14O4

>  <InChI-Key>  (343) 
AVWKADSPKOONAC-LBPRGKRZSA-N

>  <Total Molweight>  (343) 
270.283

>  <cLogP>  (343) 
2.5407

>  <cLogS>  (343) 
-4.364

>  <H-Acceptors>  (343) 
4

>  <H-Donors>  (343) 
0

>  <Rotatable Bonds>  (343) 
2

>  <Polar Surface Area>  (343) 
51.97

$$$$
CDB0344
     RDKit          3D

 37 39  0  0  0  0  0  0  0  0999 V2000
   -4.0123    0.3322   -0.8877 C   0  0  0  0  0  0  0  0  0  0  0  0
   -3.0648    0.2922    0.3190 C   0  0  0  0  0  0  0  0  0  0  0  0
   -3.2920    1.5433    1.1737 C   0  0  0  0  0  0  0  0  0  0  0  0
   -3.4316   -0.8370    1.1225 O   0  0  0  0  0  0  0  0  0  0  0  0
   -1.5864    0.1491   -0.1507 C   0  0  1  0  0  0  0  0  0  0  0  0
   -1.2265    1.2453   -1.0009 O   0  0  0  0  0  0  0  0  0  0  0  0
   -0.5887    0.0123    1.0180 C   0  0  0  0  0  0  0  0  0  0  0  0
    0.7795   -0.4018    0.5407 C   0  0  0  0  0  0  0  0  0  0  0  0
    1.1492   -1.7390    0.3567 C   0  0  0  0  0  0  0  0  0  0  0  0
    0.3450   -2.8162    0.5929 O   0  0  0  0  0  0  0  0  0  0  0  0
    1.0668   -3.9276    0.2993 C   0  0  0  0  0  0  0  0  0  0  0  0
    2.3279   -3.5859   -0.1295 C   0  0  0  0  0  0  0  0  0  0  0  0
    2.3920   -2.1671   -0.0996 C   0  0  0  0  0  0  0  0  0  0  0  0
    3.3698   -1.2049   -0.4137 C   0  0  0  0  0  0  0  0  0  0  0  0
    3.0520    0.1518   -0.2625 C   0  0  0  0  0  0  0  0  0  0  0  0
    1.7851    0.5235    0.2014 C   0  0  0  0  0  0  0  0  0  0  0  0
    1.4664    1.8990    0.3417 O   0  0  0  0  0  0  0  0  0  0  0  0
    2.3692    2.9032    0.0258 C   0  0  0  0  0  0  0  0  0  0  0  0
    2.0905    4.0909    0.1371 O   0  0  0  0  0  0  0  0  0  0  0  0
    3.6933    2.4756   -0.4509 C   0  0  0  0  0  0  0  0  0  0  0  0
    4.0220    1.1878   -0.5876 C   0  0  0  0  0  0  0  0  0  0  0  0
   -5.0586    0.3401   -0.5610 H   0  0  0  0  0  0  0  0  0  0  0  0
   -3.8910   -0.5637   -1.5072 H   0  0  0  0  0  0  0  0  0  0  0  0
   -3.8403    1.2126   -1.5151 H   0  0  0  0  0  0  0  0  0  0  0  0
   -2.7165    1.5004    2.1044 H   0  0  0  0  0  0  0  0  0  0  0  0
   -3.0258    2.4598    0.6382 H   0  0  0  0  0  0  0  0  0  0  0  0
   -4.3432    1.6181    1.4768 H   0  0  0  0  0  0  0  0  0  0  0  0
   -3.3566   -1.6344    0.5687 H   0  0  0  0  0  0  0  0  0  0  0  0
   -1.5181   -0.7573   -0.7665 H   0  0  0  0  0  0  0  0  0  0  0  0
   -0.9068    1.9748   -0.4397 H   0  0  0  0  0  0  0  0  0  0  0  0
   -0.9426   -0.7381    1.7349 H   0  0  0  0  0  0  0  0  0  0  0  0
   -0.5053    0.9530    1.5741 H   0  0  0  0  0  0  0  0  0  0  0  0
    0.5540   -4.8685    0.4436 H   0  0  0  0  0  0  0  0  0  0  0  0
    3.1051   -4.2741   -0.4295 H   0  0  0  0  0  0  0  0  0  0  0  0
    4.3451   -1.5190   -0.7732 H   0  0  0  0  0  0  0  0  0  0  0  0
    4.3891    3.2715   -0.6869 H   0  0  0  0  0  0  0  0  0  0  0  0
    5.0052    0.8984   -0.9429 H   0  0  0  0  0  0  0  0  0  0  0  0
  1  2  1  0
  2  3  1  0
  2  4  1  0
  2  5  1  0
  5  6  1  0
  5  7  1  0
  7  8  1  0
  8  9  2  0
  9 10  1  0
 10 11  1  0
 11 12  2  0
 12 13  1  0
 13 14  2  0
 14 15  1  0
 15 16  2  0
 16 17  1  0
 17 18  1  0
 18 19  2  0
 18 20  1  0
 20 21  2  0
 16  8  1  0
 13  9  1  0
 21 15  1  0
  1 22  1  0
  1 23  1  0
  1 24  1  0
  3 25  1  0
  3 26  1  0
  3 27  1  0
  4 28  1  0
  5 29  1  6
  6 30  1  0
  7 31  1  0
  7 32  1  0
 11 33  1  0
 12 34  1  0
 14 35  1  0
 20 36  1  0
 21 37  1  0
M  END
>  <Name>  (344) 
Swietenocoumarin E

>  <PubChem ID>  (344) 
57509410

>  <CDB ID>  (344) 
CDB0344

>  <Smiles>  (344) 
CC(C)(O)[C@@H](O)CC1=C2OC=CC2=CC2=C1OC(=O)C=C2

>  <Chemical class>  (344) 
7-Oxygenated Coumarins

>  <Natural source>  (344) 
Chloroxylon swietenia

>  <Molecular Formula>  (344) 
C16H16O5

>  <InChI-Key>  (344) 
MNHMQMCKMMXJMO-LBPRGKRZSA-N

>  <Total Molweight>  (344) 
288.298

>  <cLogP>  (344) 
1.9543

>  <cLogS>  (344) 
-3.883

>  <H-Acceptors>  (344) 
5

>  <H-Donors>  (344) 
2

>  <Rotatable Bonds>  (344) 
3

>  <Polar Surface Area>  (344) 
79.9

$$$$
CDB0345
     RDKit          3D

 36 38  0  0  0  0  0  0  0  0999 V2000
   -2.4325    2.2247   -0.8076 C   0  0  0  0  0  0  0  0  0  0  0  0
   -1.6578    1.2354    0.0517 C   0  0  1  0  0  0  0  0  0  0  0  0
   -2.1275   -0.2486   -0.0232 C   0  0  2  0  0  0  0  0  0  0  0  0
   -0.7971   -0.8900    0.1951 C   0  0  0  0  0  0  0  0  0  0  0  0
    0.1724   -0.0028    0.0059 C   0  0  0  0  0  0  0  0  0  0  0  0
   -0.2599    1.2687   -0.3460 O   0  0  0  0  0  0  0  0  0  0  0  0
    1.5878   -0.3464    0.0865 C   0  0  0  0  0  0  0  0  0  0  0  0
    1.8521   -1.6983    0.3718 C   0  0  0  0  0  0  0  0  0  0  0  0
    3.1442   -2.2063    0.4627 C   0  0  0  0  0  0  0  0  0  0  0  0
    4.2133   -1.3496    0.2473 C   0  0  0  0  0  0  0  0  0  0  0  0
    3.9801   -0.0039   -0.0406 C   0  0  0  0  0  0  0  0  0  0  0  0
    2.6791    0.5363   -0.0895 C   0  0  0  0  0  0  0  0  0  0  0  0
    2.4609    2.0098   -0.3109 C   0  0  0  0  0  0  0  0  0  0  0  0
    5.1052    0.7389   -0.2730 O   0  0  0  0  0  0  0  0  0  0  0  0
    0.8079   -2.6342    0.5881 O   0  0  0  0  0  0  0  0  0  0  0  0
   -0.5358   -2.2875    0.5064 C   0  0  0  0  0  0  0  0  0  0  0  0
   -1.4346   -3.1061    0.6548 O   0  0  0  0  0  0  0  0  0  0  0  0
   -2.6727   -0.6587   -1.4017 C   0  0  0  0  0  0  0  0  0  0  0  0
   -3.1787   -0.5637    1.0562 C   0  0  0  0  0  0  0  0  0  0  0  0
   -2.7055   -0.2316    2.3571 O   0  0  0  0  0  0  0  0  0  0  0  0
   -2.2978    2.0242   -1.8754 H   0  0  0  0  0  0  0  0  0  0  0  0
   -2.0539    3.2395   -0.6415 H   0  0  0  0  0  0  0  0  0  0  0  0
   -3.4997    2.2116   -0.5684 H   0  0  0  0  0  0  0  0  0  0  0  0
   -1.6847    1.6062    1.0861 H   0  0  0  0  0  0  0  0  0  0  0  0
    3.3136   -3.2548    0.6871 H   0  0  0  0  0  0  0  0  0  0  0  0
    5.2321   -1.7251    0.2953 H   0  0  0  0  0  0  0  0  0  0  0  0
    2.0751    2.1895   -1.3190 H   0  0  0  0  0  0  0  0  0  0  0  0
    3.3763    2.5958   -0.1906 H   0  0  0  0  0  0  0  0  0  0  0  0
    1.7685    2.4132    0.4351 H   0  0  0  0  0  0  0  0  0  0  0  0
    4.8758    1.4849   -0.8489 H   0  0  0  0  0  0  0  0  0  0  0  0
   -3.6181   -0.1510   -1.6227 H   0  0  0  0  0  0  0  0  0  0  0  0
   -2.8671   -1.7368   -1.4458 H   0  0  0  0  0  0  0  0  0  0  0  0
   -1.9687   -0.4213   -2.2080 H   0  0  0  0  0  0  0  0  0  0  0  0
   -3.4537   -1.6237    1.0502 H   0  0  0  0  0  0  0  0  0  0  0  0
   -4.0914    0.0163    0.8796 H   0  0  0  0  0  0  0  0  0  0  0  0
   -3.3070   -0.6547    2.9958 H   0  0  0  0  0  0  0  0  0  0  0  0
  1  2  1  0
  2  3  1  0
  3  4  1  0
  4  5  2  0
  5  6  1  0
  5  7  1  0
  7  8  2  0
  8  9  1  0
  9 10  2  0
 10 11  1  0
 11 12  2  0
 12 13  1  0
 11 14  1  0
  8 15  1  0
 15 16  1  0
 16 17  2  0
  3 18  1  6
  3 19  1  0
 19 20  1  0
  6  2  1  0
 16  4  1  0
 12  7  1  0
  1 21  1  0
  1 22  1  0
  1 23  1  0
  2 24  1  1
  9 25  1  0
 10 26  1  0
 13 27  1  0
 13 28  1  0
 13 29  1  0
 14 30  1  0
 18 31  1  0
 18 32  1  0
 18 33  1  0
 19 34  1  0
 19 35  1  0
 20 36  1  0
M  END
>  <Name>  (345) 
Glaupadiol

>  <PubChem ID>  (345) 
44144619

>  <CDB ID>  (345) 
CDB0345

>  <Smiles>  (345) 
C[C@H]1[C@](C2=C(O1)C3=C(C=CC(=C3C)O)OC2=O)(C)CO

>  <Chemical class>  (345) 
8-Oxygenated Coumarins

>  <Natural source>  (345) 
Glaucidium palmalum

>  <Molecular Formula>  (345) 
C15H16O5

>  <InChI-Key>  (345) 
AMXIALDGAYCNAK-GLEZIHRCSA-N

>  <Total Molweight>  (345) 
276.287

>  <cLogP>  (345) 
1.614

>  <cLogS>  (345) 
-2.527

>  <H-Acceptors>  (345) 
5

>  <H-Donors>  (345) 
2

>  <Rotatable Bonds>  (345) 
1

>  <Polar Surface Area>  (345) 
75.99

$$$$
CDB0346
     RDKit          3D

 58 59  0  0  0  0  0  0  0  0999 V2000
   -4.4766   -1.0886   -0.4104 C   0  0  0  0  0  0  0  0  0  0  0  0
   -5.1232   -0.9797    0.9426 C   0  0  0  0  0  0  0  0  0  0  0  0
   -5.0020    0.0686    1.7807 C   0  0  0  0  0  0  0  0  0  0  0  0
   -4.2522    1.3552    1.5552 C   0  0  0  0  0  0  0  0  0  0  0  0
   -3.0081    1.5042    2.4433 C   0  0  0  0  0  0  0  0  0  0  0  0
   -1.8414    0.6264    2.0350 C   0  0  0  0  0  0  0  0  0  0  0  0
   -0.9473    0.9433    1.0767 C   0  0  0  0  0  0  0  0  0  0  0  0
   -0.9099    2.1799    0.2174 C   0  0  0  0  0  0  0  0  0  0  0  0
   -1.2322    1.9214   -1.2638 C   0  0  0  0  0  0  0  0  0  0  0  0
   -0.2698    0.9845   -1.9741 C   0  0  0  0  0  0  0  0  0  0  0  0
    0.9396    1.4338   -2.3669 C   0  0  0  0  0  0  0  0  0  0  0  0
    2.0294    0.6828   -3.0890 C   0  0  0  0  0  0  0  0  0  0  0  0
    3.1761    0.3366   -2.1737 C   0  0  0  0  0  0  0  0  0  0  0  0
    3.3738   -0.8886   -1.6619 C   0  0  0  0  0  0  0  0  0  0  0  0
    4.5146   -1.1709   -0.7872 C   0  0  0  0  0  0  0  0  0  0  0  0
    5.3425   -0.1070   -0.4329 C   0  0  0  0  0  0  0  0  0  0  0  0
    6.4435   -0.2614    0.4109 C   0  0  0  0  0  0  0  0  0  0  0  0
    6.7300   -1.5274    0.9001 C   0  0  0  0  0  0  0  0  0  0  0  0
    5.9429   -2.6180    0.5475 C   0  0  0  0  0  0  0  0  0  0  0  0
    4.8414   -2.4431   -0.2987 C   0  0  0  0  0  0  0  0  0  0  0  0
    7.7899   -1.7507    1.7263 O   0  0  0  0  0  0  0  0  0  0  0  0
    5.1190    1.1841   -0.9427 O   0  0  0  0  0  0  0  0  0  0  0  0
    4.1107    1.4448   -1.8606 C   0  0  0  0  0  0  0  0  0  0  0  0
    3.9967    2.5569   -2.3658 O   0  0  0  0  0  0  0  0  0  0  0  0
    2.4872   -1.9151   -1.9213 O   0  0  0  0  0  0  0  0  0  0  0  0
   -0.7903   -0.4097   -2.1979 C   0  0  0  0  0  0  0  0  0  0  0  0
   -1.7012   -0.6600    2.8083 C   0  0  0  0  0  0  0  0  0  0  0  0
   -5.9418   -2.1825    1.3335 C   0  0  0  0  0  0  0  0  0  0  0  0
   -3.8643   -1.9954   -0.4619 H   0  0  0  0  0  0  0  0  0  0  0  0
   -5.2432   -1.1458   -1.1901 H   0  0  0  0  0  0  0  0  0  0  0  0
   -3.8219   -0.2494   -0.6498 H   0  0  0  0  0  0  0  0  0  0  0  0
   -5.5087    0.0192    2.7447 H   0  0  0  0  0  0  0  0  0  0  0  0
   -3.9903    1.5030    0.5039 H   0  0  0  0  0  0  0  0  0  0  0  0
   -4.9432    2.1731    1.7980 H   0  0  0  0  0  0  0  0  0  0  0  0
   -3.2692    1.3065    3.4914 H   0  0  0  0  0  0  0  0  0  0  0  0
   -2.6940    2.5550    2.4316 H   0  0  0  0  0  0  0  0  0  0  0  0
   -0.1332    0.2459    0.8787 H   0  0  0  0  0  0  0  0  0  0  0  0
    0.0892    2.6248    0.3072 H   0  0  0  0  0  0  0  0  0  0  0  0
   -1.6067    2.9393    0.5861 H   0  0  0  0  0  0  0  0  0  0  0  0
   -2.2574    1.5432   -1.3601 H   0  0  0  0  0  0  0  0  0  0  0  0
   -1.2329    2.8869   -1.7881 H   0  0  0  0  0  0  0  0  0  0  0  0
    1.1930    2.4743   -2.1548 H   0  0  0  0  0  0  0  0  0  0  0  0
    1.6378   -0.2131   -3.5809 H   0  0  0  0  0  0  0  0  0  0  0  0
    2.3884    1.3039   -3.9200 H   0  0  0  0  0  0  0  0  0  0  0  0
    7.0559    0.5986    0.6596 H   0  0  0  0  0  0  0  0  0  0  0  0
    6.1908   -3.6073    0.9244 H   0  0  0  0  0  0  0  0  0  0  0  0
    4.2691   -3.3239   -0.5757 H   0  0  0  0  0  0  0  0  0  0  0  0
    8.2525   -0.9098    1.8801 H   0  0  0  0  0  0  0  0  0  0  0  0
    2.4188   -2.4715   -1.1273 H   0  0  0  0  0  0  0  0  0  0  0  0
   -1.6854   -0.3777   -2.8280 H   0  0  0  0  0  0  0  0  0  0  0  0
   -0.0721   -1.0704   -2.6863 H   0  0  0  0  0  0  0  0  0  0  0  0
   -1.0594   -0.8766   -1.2455 H   0  0  0  0  0  0  0  0  0  0  0  0
   -2.5829   -1.2929    2.6762 H   0  0  0  0  0  0  0  0  0  0  0  0
   -1.5820   -0.4482    3.8760 H   0  0  0  0  0  0  0  0  0  0  0  0
   -0.8299   -1.2421    2.4895 H   0  0  0  0  0  0  0  0  0  0  0  0
   -6.3995   -2.0714    2.3222 H   0  0  0  0  0  0  0  0  0  0  0  0
   -5.3123   -3.0781    1.3578 H   0  0  0  0  0  0  0  0  0  0  0  0
   -6.7483   -2.3427    0.6105 H   0  0  0  0  0  0  0  0  0  0  0  0
  1  2  1  0
  2  3  2  3
  3  4  1  0
  4  5  1  0
  5  6  1  0
  6  7  2  3
  7  8  1  0
  8  9  1  0
  9 10  1  0
 10 11  2  3
 11 12  1  0
 12 13  1  0
 13 14  2  0
 14 15  1  0
 15 16  2  0
 16 17  1  0
 17 18  2  0
 18 19  1  0
 19 20  2  0
 18 21  1  0
 16 22  1  0
 22 23  1  0
 23 24  2  0
 14 25  1  0
 10 26  1  0
  6 27  1  0
  2 28  1  0
 23 13  1  0
 20 15  1  0
  1 29  1  0
  1 30  1  0
  1 31  1  0
  3 32  1  0
  4 33  1  0
  4 34  1  0
  5 35  1  0
  5 36  1  0
  7 37  1  0
  8 38  1  0
  8 39  1  0
  9 40  1  0
  9 41  1  0
 11 42  1  0
 12 43  1  0
 12 44  1  0
 17 45  1  0
 19 46  1  0
 20 47  1  0
 21 48  1  0
 25 49  1  0
 26 50  1  0
 26 51  1  0
 26 52  1  0
 27 53  1  0
 27 54  1  0
 27 55  1  0
 28 56  1  0
 28 57  1  0
 28 58  1  0
M  END
>  <Name>  (346) 
Ammoresinol

>  <PubChem ID>  (346) 
54712597

>  <CDB ID>  (346) 
CDB0346

>  <Smiles>  (346) 
CC(=CCCC(=CCCC(=CCC1=C(C2=C(C=C(C=C2)O)OC1=O)O)C)C)C

>  <Chemical class>  (346) 
4,7-Dioxygenated Coumarins

>  <Natural source>  (346) 
Doreema ammoniacum

>  <Molecular Formula>  (346) 
C24H30O4

>  <InChI-Key>  (346) 
BRIROITVQMZRGP-UHFFFAOYSA-N

>  <Total Molweight>  (346) 
382.498

>  <cLogP>  (346) 
7.2707

>  <cLogS>  (346) 
-4.389

>  <H-Acceptors>  (346) 
4

>  <H-Donors>  (346) 
2

>  <Rotatable Bonds>  (346) 
8

>  <Polar Surface Area>  (346) 
66.76

$$$$
CDB0347
     RDKit          3D

 34 36  0  0  0  0  0  0  0  0999 V2000
   -2.6357    2.8889   -0.4737 C   0  0  0  0  0  0  0  0  0  0  0  0
   -1.7710    1.7770   -0.2807 O   0  0  0  0  0  0  0  0  0  0  0  0
   -2.3626    0.5592   -0.0505 C   0  0  0  0  0  0  0  0  0  0  0  0
   -1.5079   -0.5620   -0.0753 C   0  0  0  0  0  0  0  0  0  0  0  0
   -2.0314   -1.8452    0.1586 C   0  0  0  0  0  0  0  0  0  0  0  0
   -3.3905   -2.0173    0.4188 C   0  0  0  0  0  0  0  0  0  0  0  0
   -4.2219   -0.9040    0.4461 C   0  0  0  0  0  0  0  0  0  0  0  0
   -3.7227    0.3763    0.2170 C   0  0  0  0  0  0  0  0  0  0  0  0
   -5.5574   -1.0253    0.7005 O   0  0  0  0  0  0  0  0  0  0  0  0
   -0.0646   -0.4062   -0.3597 C   0  0  0  0  0  0  0  0  0  0  0  0
    0.8355   -0.4595    0.6392 C   0  0  0  0  0  0  0  0  0  0  0  0
    2.2633   -0.2449    0.3761 C   0  0  0  0  0  0  0  0  0  0  0  0
    2.6643   -0.0669   -0.9475 C   0  0  0  0  0  0  0  0  0  0  0  0
    3.9975    0.1352   -1.3100 C   0  0  0  0  0  0  0  0  0  0  0  0
    4.9570    0.1761   -0.3099 C   0  0  0  0  0  0  0  0  0  0  0  0
    4.5945    0.0300    1.0238 C   0  0  0  0  0  0  0  0  0  0  0  0
    3.2520   -0.1723    1.3678 C   0  0  0  0  0  0  0  0  0  0  0  0
    6.2752    0.3715   -0.5920 O   0  0  0  0  0  0  0  0  0  0  0  0
    1.7272   -0.0604   -1.9955 O   0  0  0  0  0  0  0  0  0  0  0  0
    0.3624   -0.1887   -1.7671 C   0  0  0  0  0  0  0  0  0  0  0  0
   -0.4281   -0.1701   -2.7058 O   0  0  0  0  0  0  0  0  0  0  0  0
    0.4469   -0.7224    1.9422 O   0  0  0  0  0  0  0  0  0  0  0  0
   -3.1622    3.1408    0.4524 H   0  0  0  0  0  0  0  0  0  0  0  0
   -2.0169    3.7488   -0.7477 H   0  0  0  0  0  0  0  0  0  0  0  0
   -3.3385    2.7104   -1.2944 H   0  0  0  0  0  0  0  0  0  0  0  0
   -1.3791   -2.7148    0.1374 H   0  0  0  0  0  0  0  0  0  0  0  0
   -3.7760   -3.0159    0.5966 H   0  0  0  0  0  0  0  0  0  0  0  0
   -4.4178    1.2071    0.2588 H   0  0  0  0  0  0  0  0  0  0  0  0
   -5.7666   -1.9663    0.8194 H   0  0  0  0  0  0  0  0  0  0  0  0
    4.2568    0.2645   -2.3553 H   0  0  0  0  0  0  0  0  0  0  0  0
    5.3548    0.0844    1.7991 H   0  0  0  0  0  0  0  0  0  0  0  0
    3.0101   -0.2447    2.4240 H   0  0  0  0  0  0  0  0  0  0  0  0
    6.3794    0.4776   -1.5526 H   0  0  0  0  0  0  0  0  0  0  0  0
    1.1739   -1.1611    2.4107 H   0  0  0  0  0  0  0  0  0  0  0  0
  1  2  1  0
  2  3  1  0
  3  4  2  0
  4  5  1  0
  5  6  2  0
  6  7  1  0
  7  8  2  0
  7  9  1  0
  4 10  1  0
 10 11  2  0
 11 12  1  0
 12 13  2  0
 13 14  1  0
 14 15  2  0
 15 16  1  0
 16 17  2  0
 15 18  1  0
 13 19  1  0
 19 20  1  0
 20 21  2  0
 11 22  1  0
  8  3  1  0
 20 10  1  0
 17 12  1  0
  1 23  1  0
  1 24  1  0
  1 25  1  0
  5 26  1  0
  6 27  1  0
  8 28  1  0
  9 29  1  0
 14 30  1  0
 16 31  1  0
 17 32  1  0
 18 33  1  0
 22 34  1  0
M  END
>  <Name>  (347) 
Melimessanol B

>  <PubChem ID>  (347) 
100956708

>  <CDB ID>  (347) 
CDB0347

>  <Smiles>  (347) 
COC1=C(C=CC(=C1)O)C2=C(C3=C(C=C(C=C3)O)OC2=O)O

>  <Chemical class>  (347) 
4,7-Dioxygenated Coumarins

>  <Natural source>  (347) 
Melilotus messanensis

>  <Molecular Formula>  (347) 
C16H12O6

>  <InChI-Key>  (347) 
WSPHMEWGDXSVOV-UHFFFAOYSA-N

>  <Total Molweight>  (347) 
300.265

>  <cLogP>  (347) 
1.609

>  <cLogS>  (347) 
-2.286

>  <H-Acceptors>  (347) 
6

>  <H-Donors>  (347) 
3

>  <Rotatable Bonds>  (347) 
2

>  <Polar Surface Area>  (347) 
96.22

$$$$
CDB0348
     RDKit          3D

 28 31  0  0  0  0  0  0  0  0999 V2000
   -4.2742   -0.7350   -0.0965 C   0  0  0  0  0  0  0  0  0  0  0  0
   -3.0639   -1.4419   -0.0947 C   0  0  0  0  0  0  0  0  0  0  0  0
   -1.8601   -0.7162   -0.0419 C   0  0  0  0  0  0  0  0  0  0  0  0
   -1.9248    0.6789    0.0063 C   0  0  0  0  0  0  0  0  0  0  0  0
   -3.1121    1.4092    0.0058 C   0  0  0  0  0  0  0  0  0  0  0  0
   -4.2863    0.6578   -0.0472 C   0  0  0  0  0  0  0  0  0  0  0  0
   -5.5077    1.2708   -0.0526 O   0  0  0  0  0  0  0  0  0  0  0  0
   -0.6684    1.2192    0.0536 O   0  0  0  0  0  0  0  0  0  0  0  0
    0.1802    0.1683    0.0351 C   0  0  0  0  0  0  0  0  0  0  0  0
   -0.4788   -1.0317   -0.0223 C   0  0  0  0  0  0  0  0  0  0  0  0
    0.2675   -2.2671   -0.0497 C   0  0  0  0  0  0  0  0  0  0  0  0
   -0.2565   -3.3741   -0.1008 O   0  0  0  0  0  0  0  0  0  0  0  0
    1.6816   -2.1219   -0.0129 O   0  0  0  0  0  0  0  0  0  0  0  0
    2.3426   -0.8547    0.0470 C   0  0  0  0  0  0  0  0  0  0  0  0
    1.6036    0.3392    0.0730 C   0  0  0  0  0  0  0  0  0  0  0  0
    2.2689    1.5596    0.1314 C   0  0  0  0  0  0  0  0  0  0  0  0
    3.6668    1.5727    0.1631 C   0  0  0  0  0  0  0  0  0  0  0  0
    4.3833    0.3736    0.1364 C   0  0  0  0  0  0  0  0  0  0  0  0
    3.7333   -0.8551    0.0781 C   0  0  0  0  0  0  0  0  0  0  0  0
    5.7444    0.4544    0.1696 O   0  0  0  0  0  0  0  0  0  0  0  0
   -5.2147   -1.2798   -0.1369 H   0  0  0  0  0  0  0  0  0  0  0  0
   -3.0611   -2.5283   -0.1333 H   0  0  0  0  0  0  0  0  0  0  0  0
   -3.0991    2.4899    0.0446 H   0  0  0  0  0  0  0  0  0  0  0  0
   -5.3763    2.2328   -0.0154 H   0  0  0  0  0  0  0  0  0  0  0  0
    1.7167    2.4954    0.1524 H   0  0  0  0  0  0  0  0  0  0  0  0
    4.2007    2.5189    0.2087 H   0  0  0  0  0  0  0  0  0  0  0  0
    4.2784   -1.7917    0.0569 H   0  0  0  0  0  0  0  0  0  0  0  0
    6.1161   -0.4431    0.1460 H   0  0  0  0  0  0  0  0  0  0  0  0
  1  2  1  0
  2  3  2  0
  3  4  1  0
  4  5  2  0
  5  6  1  0
  6  7  1  0
  4  8  1  0
  8  9  1  0
  9 10  2  0
 10 11  1  0
 11 12  2  0
 11 13  1  0
 13 14  1  0
 14 15  1  0
 15 16  2  0
 16 17  1  0
 17 18  2  0
 18 19  1  0
 18 20  1  0
  6  1  2  0
 10  3  1  0
 15  9  1  0
 19 14  2  0
  1 21  1  0
  2 22  1  0
  5 23  1  0
  7 24  1  0
 16 25  1  0
 17 26  1  0
 19 27  1  0
 20 28  1  0
M  END
>  <Name>  (348) 
Coumestrol

>  <PubChem ID>  (348) 
5281707

>  <CDB ID>  (348) 
CDB0348

>  <Smiles>  (348) 
C1=CC2=C(C=C1O)OC3=C2C(=O)OC4=C3C=CC(=C4)O

>  <Chemical class>  (348) 
4,7-Dioxygenated Coumarins

>  <Natural source>  (348) 
Medicago sativa

>  <Molecular Formula>  (348) 
C15H8O5

>  <InChI-Key>  (348) 
ZZIALNLLNHEQPJ-UHFFFAOYSA-N

>  <Total Molweight>  (348) 
268.224

>  <cLogP>  (348) 
2.8407

>  <cLogS>  (348) 
-4.345

>  <H-Acceptors>  (348) 
5

>  <H-Donors>  (348) 
2

>  <Rotatable Bonds>  (348) 
0

>  <Polar Surface Area>  (348) 
79.9

$$$$
CDB0349
     RDKit          3D

 49 53  0  0  0  0  0  0  0  0999 V2000
    7.8704    0.5012    0.3269 C   0  0  0  0  0  0  0  0  0  0  0  0
    6.6862    0.5247    1.0782 C   0  0  0  0  0  0  0  0  0  0  0  0
    5.4714    0.2118    0.4402 C   0  0  0  0  0  0  0  0  0  0  0  0
    5.4962   -0.1101   -0.9195 C   0  0  0  0  0  0  0  0  0  0  0  0
    6.6546   -0.1414   -1.6904 C   0  0  0  0  0  0  0  0  0  0  0  0
    7.8408    0.1732   -1.0287 C   0  0  0  0  0  0  0  0  0  0  0  0
    8.9898    0.1481   -1.7680 O   0  0  0  0  0  0  0  0  0  0  0  0
    4.2348   -0.3849   -1.3737 O   0  0  0  0  0  0  0  0  0  0  0  0
    3.4233   -0.2372   -0.3041 C   0  0  0  0  0  0  0  0  0  0  0  0
    4.1105    0.1244    0.8247 C   0  0  0  0  0  0  0  0  0  0  0  0
    3.4050    0.3303    2.0673 C   0  0  0  0  0  0  0  0  0  0  0  0
    3.9584    0.6560    3.1117 O   0  0  0  0  0  0  0  0  0  0  0  0
    1.9987    0.1326    2.0054 O   0  0  0  0  0  0  0  0  0  0  0  0
    1.3085   -0.2451    0.8115 C   0  0  0  0  0  0  0  0  0  0  0  0
    2.0070   -0.4442   -0.3898 C   0  0  0  0  0  0  0  0  0  0  0  0
    1.3157   -0.8252   -1.5361 C   0  0  0  0  0  0  0  0  0  0  0  0
   -0.0714   -0.9943   -1.4740 C   0  0  0  0  0  0  0  0  0  0  0  0
   -0.7562   -0.7620   -0.2746 C   0  0  0  0  0  0  0  0  0  0  0  0
   -0.0690   -0.4098    0.8854 C   0  0  0  0  0  0  0  0  0  0  0  0
   -2.1048   -0.9582   -0.1738 O   0  0  0  0  0  0  0  0  0  0  0  0
   -2.8766   -0.0255   -0.9430 C   0  0  0  0  0  0  0  0  0  0  0  0
   -3.0965    1.3215   -0.1989 C   0  0  0  0  0  0  0  0  0  0  0  0
   -4.0658    1.1578    0.9762 C   0  0  0  0  0  0  0  0  0  0  0  0
   -5.3383    0.4171    0.5367 C   0  0  0  0  0  0  0  0  0  0  0  0
   -4.9712   -0.8930   -0.1766 C   0  0  0  0  0  0  0  0  0  0  0  0
   -4.1336   -0.6184   -1.3110 O   0  0  0  0  0  0  0  0  0  0  0  0
   -6.2089   -1.6729   -0.6531 C   0  0  0  0  0  0  0  0  0  0  0  0
   -7.1144   -0.8694   -1.4094 O   0  0  0  0  0  0  0  0  0  0  0  0
   -6.1486    0.1562    1.6915 O   0  0  0  0  0  0  0  0  0  0  0  0
   -3.4431    0.4685    2.0678 O   0  0  0  0  0  0  0  0  0  0  0  0
   -3.6448    2.3193   -1.0800 O   0  0  0  0  0  0  0  0  0  0  0  0
    8.8066    0.7432    0.8227 H   0  0  0  0  0  0  0  0  0  0  0  0
    6.7083    0.7801    2.1349 H   0  0  0  0  0  0  0  0  0  0  0  0
    6.6326   -0.3961   -2.7422 H   0  0  0  0  0  0  0  0  0  0  0  0
    9.7387    0.3790   -1.1940 H   0  0  0  0  0  0  0  0  0  0  0  0
    1.8446   -1.0048   -2.4691 H   0  0  0  0  0  0  0  0  0  0  0  0
   -0.6091   -1.3285   -2.3583 H   0  0  0  0  0  0  0  0  0  0  0  0
   -0.6010   -0.2651    1.8213 H   0  0  0  0  0  0  0  0  0  0  0  0
   -2.3891    0.1836   -1.9028 H   0  0  0  0  0  0  0  0  0  0  0  0
   -2.1391    1.7034    0.1716 H   0  0  0  0  0  0  0  0  0  0  0  0
   -4.3539    2.1418    1.3655 H   0  0  0  0  0  0  0  0  0  0  0  0
   -5.9056    1.0644   -0.1431 H   0  0  0  0  0  0  0  0  0  0  0  0
   -4.4347   -1.5641    0.5067 H   0  0  0  0  0  0  0  0  0  0  0  0
   -6.7573   -2.0955    0.1955 H   0  0  0  0  0  0  0  0  0  0  0  0
   -5.8990   -2.4987   -1.3019 H   0  0  0  0  0  0  0  0  0  0  0  0
   -7.6516   -0.3704   -0.7707 H   0  0  0  0  0  0  0  0  0  0  0  0
   -6.4629    1.0199    2.0183 H   0  0  0  0  0  0  0  0  0  0  0  0
   -4.1697    0.1017    2.6098 H   0  0  0  0  0  0  0  0  0  0  0  0
   -3.0861    2.3550   -1.8765 H   0  0  0  0  0  0  0  0  0  0  0  0
  1  2  1  0
  2  3  2  0
  3  4  1  0
  4  5  2  0
  5  6  1  0
  6  7  1  0
  4  8  1  0
  8  9  1  0
  9 10  2  0
 10 11  1  0
 11 12  2  0
 11 13  1  0
 13 14  1  0
 14 15  1  0
 15 16  2  0
 16 17  1  0
 17 18  2  0
 18 19  1  0
 18 20  1  0
 20 21  1  0
 21 22  1  0
 22 23  1  0
 23 24  1  0
 24 25  1  0
 25 26  1  0
 25 27  1  0
 27 28  1  0
 24 29  1  0
 23 30  1  0
 22 31  1  0
  6  1  2  0
 10  3  1  0
 15  9  1  0
 19 14  2  0
 26 21  1  0
  1 32  1  0
  2 33  1  0
  5 34  1  0
  7 35  1  0
 16 36  1  0
 17 37  1  0
 19 38  1  0
 21 39  1  0
 22 40  1  0
 23 41  1  0
 24 42  1  0
 25 43  1  0
 27 44  1  0
 27 45  1  0
 28 46  1  0
 29 47  1  0
 30 48  1  0
 31 49  1  0
M  END
>  <Name>  (349) 
Coumestrin

>  <PubChem ID>  (349) 
45356238

>  <CDB ID>  (349) 
CDB0349

>  <Smiles>  (349) 
C1=CC2=C(C=C1O)OC3=C2C(=O)OC4=C3C=CC(=C4)OC5C(C(C(C(O5)CO)O)O)O

>  <Chemical class>  (349) 
4,7-Dioxygenated Coumarins

>  <Natural source>  (349) 
Glycine max

>  <Molecular Formula>  (349) 
C21H18O10

>  <InChI-Key>  (349) 
JSKGNHCHUPJTOQ-UHFFFAOYSA-N

>  <Total Molweight>  (349) 
430.364

>  <cLogP>  (349) 
0.8514

>  <cLogS>  (349) 
-4.231

>  <H-Acceptors>  (349) 
10

>  <H-Donors>  (349) 
5

>  <Rotatable Bonds>  (349) 
3

>  <Polar Surface Area>  (349) 
159.05

$$$$
CDB0350
     RDKit          3D

 41 44  0  0  0  0  0  0  0  0999 V2000
   -4.1573   -0.5677    2.1750 C   0  0  0  0  0  0  0  0  0  0  0  0
   -2.9557   -1.1527    1.4798 C   0  0  0  0  0  0  0  0  0  0  0  0
   -3.0278   -1.5242    0.1860 C   0  0  0  0  0  0  0  0  0  0  0  0
   -1.9514   -2.1323   -0.6743 C   0  0  0  0  0  0  0  0  0  0  0  0
   -1.4236   -1.1619   -1.6957 C   0  0  0  0  0  0  0  0  0  0  0  0
   -2.0418   -0.9613   -2.9435 C   0  0  0  0  0  0  0  0  0  0  0  0
   -1.5633   -0.0449   -3.8843 C   0  0  0  0  0  0  0  0  0  0  0  0
   -0.4300    0.7302   -3.6124 C   0  0  0  0  0  0  0  0  0  0  0  0
    0.2163    0.5701   -2.3751 C   0  0  0  0  0  0  0  0  0  0  0  0
   -0.2962   -0.3609   -1.4669 C   0  0  0  0  0  0  0  0  0  0  0  0
    0.4636   -0.3745   -0.3246 O   0  0  0  0  0  0  0  0  0  0  0  0
    1.4351    0.5412   -0.5154 C   0  0  0  0  0  0  0  0  0  0  0  0
    1.3435    1.1479   -1.7389 C   0  0  0  0  0  0  0  0  0  0  0  0
    2.3025    2.1577   -2.1195 C   0  0  0  0  0  0  0  0  0  0  0  0
    2.2788    2.7384   -3.1991 O   0  0  0  0  0  0  0  0  0  0  0  0
    3.2991    2.4445   -1.1471 O   0  0  0  0  0  0  0  0  0  0  0  0
    3.3676    1.7940    0.1246 C   0  0  0  0  0  0  0  0  0  0  0  0
    2.4287    0.8136    0.4812 C   0  0  0  0  0  0  0  0  0  0  0  0
    2.5143    0.1941    1.7250 C   0  0  0  0  0  0  0  0  0  0  0  0
    3.5399    0.5597    2.6038 C   0  0  0  0  0  0  0  0  0  0  0  0
    4.4645    1.5387    2.2275 C   0  0  0  0  0  0  0  0  0  0  0  0
    4.3903    2.1657    0.9882 C   0  0  0  0  0  0  0  0  0  0  0  0
    5.4739    1.9139    3.0646 O   0  0  0  0  0  0  0  0  0  0  0  0
   -3.1576   -1.7018   -3.2367 O   0  0  0  0  0  0  0  0  0  0  0  0
   -1.7301   -1.2511    2.3446 C   0  0  0  0  0  0  0  0  0  0  0  0
   -3.9353    0.4446    2.5284 H   0  0  0  0  0  0  0  0  0  0  0  0
   -5.0304   -0.5057    1.5169 H   0  0  0  0  0  0  0  0  0  0  0  0
   -4.4339   -1.1846    3.0363 H   0  0  0  0  0  0  0  0  0  0  0  0
   -3.9746   -1.3934   -0.3390 H   0  0  0  0  0  0  0  0  0  0  0  0
   -2.3607   -3.0177   -1.1769 H   0  0  0  0  0  0  0  0  0  0  0  0
   -1.1204   -2.5190   -0.0762 H   0  0  0  0  0  0  0  0  0  0  0  0
   -2.0620    0.0851   -4.8412 H   0  0  0  0  0  0  0  0  0  0  0  0
   -0.0607    1.4447   -4.3440 H   0  0  0  0  0  0  0  0  0  0  0  0
    1.7937   -0.5667    2.0147 H   0  0  0  0  0  0  0  0  0  0  0  0
    3.6025    0.0733    3.5730 H   0  0  0  0  0  0  0  0  0  0  0  0
    5.1133    2.9241    0.7072 H   0  0  0  0  0  0  0  0  0  0  0  0
    5.4087    1.4021    3.8879 H   0  0  0  0  0  0  0  0  0  0  0  0
   -3.4830   -1.4502   -4.1166 H   0  0  0  0  0  0  0  0  0  0  0  0
   -0.8598   -1.6586    1.8271 H   0  0  0  0  0  0  0  0  0  0  0  0
   -1.4511   -0.2586    2.7143 H   0  0  0  0  0  0  0  0  0  0  0  0
   -1.9299   -1.8960    3.2068 H   0  0  0  0  0  0  0  0  0  0  0  0
  1  2  1  0
  2  3  2  3
  3  4  1  0
  4  5  1  0
  5  6  1  0
  6  7  2  0
  7  8  1  0
  8  9  2  0
  9 10  1  0
 10 11  1  0
 11 12  1  0
 12 13  2  0
 13 14  1  0
 14 15  2  0
 14 16  1  0
 16 17  1  0
 17 18  1  0
 18 19  2  0
 19 20  1  0
 20 21  2  0
 21 22  1  0
 21 23  1  0
  6 24  1  0
  2 25  1  0
 10  5  2  0
 13  9  1  0
 18 12  1  0
 22 17  2  0
  1 26  1  0
  1 27  1  0
  1 28  1  0
  3 29  1  0
  4 30  1  0
  4 31  1  0
  7 32  1  0
  8 33  1  0
 19 34  1  0
 20 35  1  0
 22 36  1  0
 23 37  1  0
 24 38  1  0
 25 39  1  0
 25 40  1  0
 25 41  1  0
M  END
>  <Name>  (350) 
Isosojagol

>  <PubChem ID>  (350) 
16744613

>  <CDB ID>  (350) 
CDB0350

>  <Smiles>  (350) 
CC(=CCC1=C(C=CC2=C1OC3=C2C(=O)OC4=C3C=CC(=C4)O)O)C

>  <Chemical class>  (350) 
4,7-Dioxygenated Coumarins

>  <Natural source>  (350) 
Phaseolus coccineus

>  <Molecular Formula>  (350) 
C20H16O5

>  <InChI-Key>  (350) 
MQKLGUOASGICKG-UHFFFAOYSA-N

>  <Total Molweight>  (350) 
336.342

>  <cLogP>  (350) 
4.8632

>  <cLogS>  (350) 
-5.284

>  <H-Acceptors>  (350) 
5

>  <H-Donors>  (350) 
2

>  <Rotatable Bonds>  (350) 
2

>  <Polar Surface Area>  (350) 
79.9

$$$$
CDB0351
     RDKit          3D

 42 46  0  0  0  0  0  0  0  0999 V2000
   -6.0269    0.7237    0.3241 C   0  0  0  0  0  0  0  0  0  0  0  0
   -5.0985   -0.4893    0.4403 C   0  0  0  0  0  0  0  0  0  0  0  0
   -5.1015   -1.2937   -0.8650 C   0  0  0  0  0  0  0  0  0  0  0  0
   -3.6704   -0.0726    0.8817 C   0  0  0  0  0  0  0  0  0  0  0  0
   -3.0271    1.0404    0.0348 C   0  0  0  0  0  0  0  0  0  0  0  0
   -1.6082    0.6171    0.1079 C   0  0  0  0  0  0  0  0  0  0  0  0
   -0.4686    1.3230   -0.2620 C   0  0  0  0  0  0  0  0  0  0  0  0
    0.7638    0.6476   -0.1454 C   0  0  0  0  0  0  0  0  0  0  0  0
    0.7756   -0.6784    0.3146 C   0  0  0  0  0  0  0  0  0  0  0  0
   -0.3617   -1.3988    0.6772 C   0  0  0  0  0  0  0  0  0  0  0  0
   -1.5454   -0.6924    0.5606 C   0  0  0  0  0  0  0  0  0  0  0  0
   -2.7740   -1.2257    0.8593 O   0  0  0  0  0  0  0  0  0  0  0  0
    2.0559   -1.1613    0.3535 O   0  0  0  0  0  0  0  0  0  0  0  0
    2.8417   -0.1515   -0.0774 C   0  0  0  0  0  0  0  0  0  0  0  0
    2.1217    0.9694   -0.3966 C   0  0  0  0  0  0  0  0  0  0  0  0
    2.7969    2.1503   -0.8796 C   0  0  0  0  0  0  0  0  0  0  0  0
    2.2148    3.1853   -1.1849 O   0  0  0  0  0  0  0  0  0  0  0  0
    4.2106    2.0410   -0.9843 O   0  0  0  0  0  0  0  0  0  0  0  0
    4.9364    0.8565   -0.6427 C   0  0  0  0  0  0  0  0  0  0  0  0
    4.2662   -0.2855   -0.1749 C   0  0  0  0  0  0  0  0  0  0  0  0
    4.9936   -1.4257    0.1507 C   0  0  0  0  0  0  0  0  0  0  0  0
    6.3842   -1.4116    0.0048 C   0  0  0  0  0  0  0  0  0  0  0  0
    7.0318   -0.2652   -0.4622 C   0  0  0  0  0  0  0  0  0  0  0  0
    6.3192    0.8832   -0.7922 C   0  0  0  0  0  0  0  0  0  0  0  0
    8.3896   -0.3155   -0.5821 O   0  0  0  0  0  0  0  0  0  0  0  0
   -5.6488   -1.3289    1.4715 O   0  0  0  0  0  0  0  0  0  0  0  0
   -7.0606    0.4074    0.1415 H   0  0  0  0  0  0  0  0  0  0  0  0
   -5.7303    1.3959   -0.4868 H   0  0  0  0  0  0  0  0  0  0  0  0
   -6.0402    1.2922    1.2611 H   0  0  0  0  0  0  0  0  0  0  0  0
   -4.5380   -2.2269   -0.7569 H   0  0  0  0  0  0  0  0  0  0  0  0
   -4.6808   -0.7260   -1.6998 H   0  0  0  0  0  0  0  0  0  0  0  0
   -6.1221   -1.5877   -1.1373 H   0  0  0  0  0  0  0  0  0  0  0  0
   -3.7085    0.2472    1.9342 H   0  0  0  0  0  0  0  0  0  0  0  0
   -3.2041    2.0283    0.4694 H   0  0  0  0  0  0  0  0  0  0  0  0
   -3.3576    1.0293   -1.0078 H   0  0  0  0  0  0  0  0  0  0  0  0
   -0.5221    2.3433   -0.6293 H   0  0  0  0  0  0  0  0  0  0  0  0
   -0.3171   -2.4209    1.0251 H   0  0  0  0  0  0  0  0  0  0  0  0
    4.4947   -2.3202    0.5147 H   0  0  0  0  0  0  0  0  0  0  0  0
    6.9658   -2.2955    0.2555 H   0  0  0  0  0  0  0  0  0  0  0  0
    6.8106    1.7784   -1.1554 H   0  0  0  0  0  0  0  0  0  0  0  0
    8.7106    0.5400   -0.9125 H   0  0  0  0  0  0  0  0  0  0  0  0
   -6.4708   -1.7260    1.1369 H   0  0  0  0  0  0  0  0  0  0  0  0
  1  2  1  0
  2  3  1  0
  2  4  1  0
  4  5  1  0
  5  6  1  0
  6  7  1  0
  7  8  2  0
  8  9  1  0
  9 10  2  0
 10 11  1  0
 11 12  1  0
  9 13  1  0
 13 14  1  0
 14 15  2  0
 15 16  1  0
 16 17  2  0
 16 18  1  0
 18 19  1  0
 19 20  1  0
 20 21  2  0
 21 22  1  0
 22 23  2  0
 23 24  1  0
 23 25  1  0
  2 26  1  0
 12  4  1  0
 11  6  2  0
 15  8  1  0
 20 14  1  0
 24 19  2  0
  1 27  1  0
  1 28  1  0
  1 29  1  0
  3 30  1  0
  3 31  1  0
  3 32  1  0
  4 33  1  0
  5 34  1  0
  5 35  1  0
  7 36  1  0
 10 37  1  0
 21 38  1  0
 22 39  1  0
 24 40  1  0
 25 41  1  0
 26 42  1  0
M  END
>  <Name>  (351) 
Bavacoumestan B

>  <PubChem ID>  (351) 
5321820

>  <CDB ID>  (351) 
CDB0351

>  <Smiles>  (351) 
CC(C)(C1CC2=CC3=C(C=C2O1)OC4=C3C(=O)OC5=C4C=CC(=C5)O)O

>  <Chemical class>  (351) 
4,7-Dioxygenated Coumarins

>  <Natural source>  (351) 
Psoralea corylifolia

>  <Molecular Formula>  (351) 
C20H16O6

>  <InChI-Key>  (351) 
PUGPPUXRVZRDGR-MRXNPFEDSA-N

>  <Total Molweight>  (351) 
352.341

>  <cLogP>  (351) 
3.5501

>  <cLogS>  (351) 
-5.366

>  <H-Acceptors>  (351) 
6

>  <H-Donors>  (351) 
2

>  <Rotatable Bonds>  (351) 
1

>  <Polar Surface Area>  (351) 
89.13

$$$$
CDB0352
     RDKit          3D

 42 46  0  0  0  0  0  0  0  0999 V2000
   -5.2731    1.8910    0.3394 C   0  0  0  0  0  0  0  0  0  0  0  0
   -4.2385    0.7533    0.2969 C   0  0  0  0  0  0  0  0  0  0  0  0
   -4.2774    0.0811   -1.0946 C   0  0  0  0  0  0  0  0  0  0  0  0
   -3.1657   -0.9566   -1.2171 C   0  0  0  0  0  0  0  0  0  0  0  0
   -1.8661   -0.4175   -0.6950 C   0  0  0  0  0  0  0  0  0  0  0  0
   -0.6655   -1.0688   -1.0434 C   0  0  0  0  0  0  0  0  0  0  0  0
    0.5546   -0.5674   -0.5551 C   0  0  0  0  0  0  0  0  0  0  0  0
    0.5274    0.5602    0.2665 C   0  0  0  0  0  0  0  0  0  0  0  0
   -0.6386    1.2209    0.6388 C   0  0  0  0  0  0  0  0  0  0  0  0
   -1.8417    0.6999    0.1504 C   0  0  0  0  0  0  0  0  0  0  0  0
   -2.9637    1.3799    0.5465 O   0  0  0  0  0  0  0  0  0  0  0  0
    1.7938    0.9117    0.6475 O   0  0  0  0  0  0  0  0  0  0  0  0
    2.6115    0.0064    0.0674 C   0  0  0  0  0  0  0  0  0  0  0  0
    1.9224   -0.9162   -0.6749 C   0  0  0  0  0  0  0  0  0  0  0  0
    2.6327   -1.9626   -1.3709 C   0  0  0  0  0  0  0  0  0  0  0  0
    2.0768   -2.8163   -2.0531 O   0  0  0  0  0  0  0  0  0  0  0  0
    4.0453   -1.9428   -1.2161 O   0  0  0  0  0  0  0  0  0  0  0  0
    4.7375   -0.9664   -0.4334 C   0  0  0  0  0  0  0  0  0  0  0  0
    4.0346    0.0466    0.2376 C   0  0  0  0  0  0  0  0  0  0  0  0
    4.7305    0.9860    0.9935 C   0  0  0  0  0  0  0  0  0  0  0  0
    6.1252    0.9054    1.0728 C   0  0  0  0  0  0  0  0  0  0  0  0
    6.8046   -0.1121    0.3961 C   0  0  0  0  0  0  0  0  0  0  0  0
    6.1220   -1.0570   -0.3625 C   0  0  0  0  0  0  0  0  0  0  0  0
    8.1633   -0.2138    0.4564 O   0  0  0  0  0  0  0  0  0  0  0  0
   -5.5418   -0.5339   -1.3472 O   0  0  0  0  0  0  0  0  0  0  0  0
   -4.5526   -0.2130    1.4522 C   0  0  0  0  0  0  0  0  0  0  0  0
   -5.0667    2.6323   -0.4414 H   0  0  0  0  0  0  0  0  0  0  0  0
   -6.2953    1.5225    0.2061 H   0  0  0  0  0  0  0  0  0  0  0  0
   -5.2223    2.4295    1.2930 H   0  0  0  0  0  0  0  0  0  0  0  0
   -4.1218    0.8510   -1.8629 H   0  0  0  0  0  0  0  0  0  0  0  0
   -3.4285   -1.8723   -0.6732 H   0  0  0  0  0  0  0  0  0  0  0  0
   -3.0644   -1.2438   -2.2713 H   0  0  0  0  0  0  0  0  0  0  0  0
   -0.6744   -1.9470   -1.6857 H   0  0  0  0  0  0  0  0  0  0  0  0
   -0.6136    2.0911    1.2832 H   0  0  0  0  0  0  0  0  0  0  0  0
    4.2001    1.7763    1.5190 H   0  0  0  0  0  0  0  0  0  0  0  0
    6.6632    1.6409    1.6641 H   0  0  0  0  0  0  0  0  0  0  0  0
    6.6598   -1.8422   -0.8833 H   0  0  0  0  0  0  0  0  0  0  0  0
    8.5095    0.5015    1.0154 H   0  0  0  0  0  0  0  0  0  0  0  0
   -5.5281   -0.8677   -2.2613 H   0  0  0  0  0  0  0  0  0  0  0  0
   -4.5228    0.3139    2.4133 H   0  0  0  0  0  0  0  0  0  0  0  0
   -5.5415   -0.6697    1.3423 H   0  0  0  0  0  0  0  0  0  0  0  0
   -3.8109   -1.0144    1.5283 H   0  0  0  0  0  0  0  0  0  0  0  0
  1  2  1  0
  2  3  1  0
  3  4  1  0
  4  5  1  0
  5  6  1  0
  6  7  2  0
  7  8  1  0
  8  9  2  0
  9 10  1  0
 10 11  1  0
  8 12  1  0
 12 13  1  0
 13 14  2  0
 14 15  1  0
 15 16  2  0
 15 17  1  0
 17 18  1  0
 18 19  1  0
 19 20  2  0
 20 21  1  0
 21 22  2  0
 22 23  1  0
 22 24  1  0
  3 25  1  0
  2 26  1  0
 11  2  1  0
 10  5  2  0
 14  7  1  0
 19 13  1  0
 23 18  2  0
  1 27  1  0
  1 28  1  0
  1 29  1  0
  3 30  1  0
  4 31  1  0
  4 32  1  0
  6 33  1  0
  9 34  1  0
 20 35  1  0
 21 36  1  0
 23 37  1  0
 24 38  1  0
 25 39  1  0
 26 40  1  0
 26 41  1  0
 26 42  1  0
M  END
>  <Name>  (352) 
Bavacoumestan A

>  <PubChem ID>  (352) 
5321811

>  <CDB ID>  (352) 
CDB0352

>  <Smiles>  (352) 
CC1(C(CC2=CC3=C(C=C2O1)OC4=C3C(=O)OC5=C4C=CC(=C5)O)O)C

>  <Chemical class>  (352) 
4,7-Dioxygenated Coumarins

>  <Natural source>  (352) 
Psoralea corylifolia

>  <Molecular Formula>  (352) 
C20H16O6

>  <InChI-Key>  (352) 
RPMMXKVPBSLSDA-MRXNPFEDSA-N

>  <Total Molweight>  (352) 
352.341

>  <cLogP>  (352) 
3.5248

>  <cLogS>  (352) 
-5.366

>  <H-Acceptors>  (352) 
6

>  <H-Donors>  (352) 
2

>  <Rotatable Bonds>  (352) 
0

>  <Polar Surface Area>  (352) 
89.13

$$$$
CDB0353
     RDKit          3D

 39 43  0  0  0  0  0  0  0  0999 V2000
    5.4539    0.9097    1.0409 C   0  0  0  0  0  0  0  0  0  0  0  0
    4.6285    0.3494   -0.1235 C   0  0  0  0  0  0  0  0  0  0  0  0
    4.5139   -1.1502    0.0235 C   0  0  0  0  0  0  0  0  0  0  0  0
    3.3485   -1.7906    0.1455 C   0  0  0  0  0  0  0  0  0  0  0  0
    2.1290   -0.9982    0.1357 C   0  0  0  0  0  0  0  0  0  0  0  0
    0.8813   -1.6355    0.2617 C   0  0  0  0  0  0  0  0  0  0  0  0
   -0.2888   -0.8535    0.2503 C   0  0  0  0  0  0  0  0  0  0  0  0
   -0.1626    0.5300    0.1136 C   0  0  0  0  0  0  0  0  0  0  0  0
    1.0554    1.1900   -0.0130 C   0  0  0  0  0  0  0  0  0  0  0  0
    2.2061    0.3933    0.0009 C   0  0  0  0  0  0  0  0  0  0  0  0
    3.3839    1.0784   -0.1260 O   0  0  0  0  0  0  0  0  0  0  0  0
   -1.3918    1.1309    0.1223 O   0  0  0  0  0  0  0  0  0  0  0  0
   -2.2853    0.1278    0.2639 C   0  0  0  0  0  0  0  0  0  0  0  0
   -1.6810   -1.0990    0.3472 C   0  0  0  0  0  0  0  0  0  0  0  0
   -2.4806   -2.2912    0.5016 C   0  0  0  0  0  0  0  0  0  0  0  0
   -2.0031   -3.4175    0.5821 O   0  0  0  0  0  0  0  0  0  0  0  0
   -3.8844   -2.0767    0.5558 O   0  0  0  0  0  0  0  0  0  0  0  0
   -4.4869   -0.7828    0.4662 C   0  0  0  0  0  0  0  0  0  0  0  0
   -3.6978    0.3684    0.3162 C   0  0  0  0  0  0  0  0  0  0  0  0
   -4.3072    1.6172    0.2312 C   0  0  0  0  0  0  0  0  0  0  0  0
   -5.7021    1.7057    0.2968 C   0  0  0  0  0  0  0  0  0  0  0  0
   -6.4682    0.5457    0.4464 C   0  0  0  0  0  0  0  0  0  0  0  0
   -5.8725   -0.7082    0.5326 C   0  0  0  0  0  0  0  0  0  0  0  0
   -7.8292    0.6033    0.5132 O   0  0  0  0  0  0  0  0  0  0  0  0
    5.3218    0.6755   -1.4516 C   0  0  0  0  0  0  0  0  0  0  0  0
    6.4549    0.4666    1.0859 H   0  0  0  0  0  0  0  0  0  0  0  0
    5.5626    1.9973    0.9549 H   0  0  0  0  0  0  0  0  0  0  0  0
    4.9527    0.7254    1.9988 H   0  0  0  0  0  0  0  0  0  0  0  0
    5.4360   -1.7258    0.0287 H   0  0  0  0  0  0  0  0  0  0  0  0
    3.2939   -2.8682    0.2497 H   0  0  0  0  0  0  0  0  0  0  0  0
    0.8109   -2.7154    0.3669 H   0  0  0  0  0  0  0  0  0  0  0  0
    1.1077    2.2665   -0.1169 H   0  0  0  0  0  0  0  0  0  0  0  0
   -3.7095    2.5180    0.1148 H   0  0  0  0  0  0  0  0  0  0  0  0
   -6.1724    2.6826    0.2300 H   0  0  0  0  0  0  0  0  0  0  0  0
   -6.4770   -1.6015    0.6486 H   0  0  0  0  0  0  0  0  0  0  0  0
   -8.1104    1.5305    0.4410 H   0  0  0  0  0  0  0  0  0  0  0  0
    6.3168    0.2219   -1.5182 H   0  0  0  0  0  0  0  0  0  0  0  0
    5.4281    1.7590   -1.5810 H   0  0  0  0  0  0  0  0  0  0  0  0
    4.7247    0.3214   -2.3007 H   0  0  0  0  0  0  0  0  0  0  0  0
  1  2  1  0
  2  3  1  0
  3  4  2  0
  4  5  1  0
  5  6  1  0
  6  7  2  0
  7  8  1  0
  8  9  2  0
  9 10  1  0
 10 11  1  0
  8 12  1  0
 12 13  1  0
 13 14  2  0
 14 15  1  0
 15 16  2  0
 15 17  1  0
 17 18  1  0
 18 19  1  0
 19 20  2  0
 20 21  1  0
 21 22  2  0
 22 23  1  0
 22 24  1  0
  2 25  1  0
 11  2  1  0
 10  5  2  0
 14  7  1  0
 19 13  1  0
 23 18  2  0
  1 26  1  0
  1 27  1  0
  1 28  1  0
  3 29  1  0
  4 30  1  0
  6 31  1  0
  9 32  1  0
 20 33  1  0
 21 34  1  0
 23 35  1  0
 24 36  1  0
 25 37  1  0
 25 38  1  0
 25 39  1  0
M  END
>  <Name>  (353) 
Sophoracoumestan A

>  <PubChem ID>  (353) 
14630492

>  <CDB ID>  (353) 
CDB0353

>  <Smiles>  (353) 
CC1(C=CC2=CC3=C(C=C2O1)OC4=C3C(=O)OC5=C4C=CC(=C5)O)C

>  <Chemical class>  (353) 
4,7-Dioxygenated Coumarins

>  <Natural source>  (353) 
Sophora franchetiana

>  <Molecular Formula>  (353) 
C20H14O5

>  <InChI-Key>  (353) 
JOMJKDWBAPDZIF-UHFFFAOYSA-N

>  <Total Molweight>  (353) 
334.326

>  <cLogP>  (353) 
4.2131

>  <cLogS>  (353) 
-5.9

>  <H-Acceptors>  (353) 
5

>  <H-Donors>  (353) 
1

>  <Rotatable Bonds>  (353) 
0

>  <Polar Surface Area>  (353) 
68.9

$$$$
CDB0354
     RDKit          3D

 42 46  0  0  0  0  0  0  0  0999 V2000
   -6.0459    1.4735   -0.5784 C   0  0  0  0  0  0  0  0  0  0  0  0
   -5.2827    0.4326    0.2493 C   0  0  0  0  0  0  0  0  0  0  0  0
   -5.1858   -0.8546   -0.5363 C   0  0  0  0  0  0  0  0  0  0  0  0
   -4.0265   -1.4165   -0.8878 C   0  0  0  0  0  0  0  0  0  0  0  0
   -2.7960   -0.7503   -0.4910 C   0  0  0  0  0  0  0  0  0  0  0  0
   -1.5544   -1.3104   -0.8421 C   0  0  0  0  0  0  0  0  0  0  0  0
   -0.3736   -0.6525   -0.4501 C   0  0  0  0  0  0  0  0  0  0  0  0
   -0.4836    0.5352    0.2751 C   0  0  0  0  0  0  0  0  0  0  0  0
   -1.6953    1.1145    0.6376 C   0  0  0  0  0  0  0  0  0  0  0  0
   -2.8568    0.4438    0.2376 C   0  0  0  0  0  0  0  0  0  0  0  0
   -4.0280    1.0441    0.6126 O   0  0  0  0  0  0  0  0  0  0  0  0
    0.7541    1.0371    0.5716 O   0  0  0  0  0  0  0  0  0  0  0  0
    1.6371    0.1675    0.0345 C   0  0  0  0  0  0  0  0  0  0  0  0
    1.0174   -0.8779   -0.5982 C   0  0  0  0  0  0  0  0  0  0  0  0
    1.8042   -1.9085   -1.2327 C   0  0  0  0  0  0  0  0  0  0  0  0
    1.3151   -2.8699   -1.8152 O   0  0  0  0  0  0  0  0  0  0  0  0
    3.2127   -1.7390   -1.1402 O   0  0  0  0  0  0  0  0  0  0  0  0
    3.8323   -0.6350   -0.4718 C   0  0  0  0  0  0  0  0  0  0  0  0
    3.0542    0.3585    0.1400 C   0  0  0  0  0  0  0  0  0  0  0  0
    3.6804    1.4186    0.7816 C   0  0  0  0  0  0  0  0  0  0  0  0
    5.0787    1.4702    0.8023 C   0  0  0  0  0  0  0  0  0  0  0  0
    5.8539    0.4730    0.1882 C   0  0  0  0  0  0  0  0  0  0  0  0
    5.2248   -0.5923   -0.4565 C   0  0  0  0  0  0  0  0  0  0  0  0
    7.2049    0.6619    0.2930 O   0  0  0  0  0  0  0  0  0  0  0  0
    8.0416   -0.3174   -0.3106 C   0  0  0  0  0  0  0  0  0  0  0  0
   -6.0297    0.1685    1.5620 C   0  0  0  0  0  0  0  0  0  0  0  0
   -5.5052    1.7098   -1.5029 H   0  0  0  0  0  0  0  0  0  0  0  0
   -7.0508    1.1292   -0.8465 H   0  0  0  0  0  0  0  0  0  0  0  0
   -6.1408    2.4170   -0.0280 H   0  0  0  0  0  0  0  0  0  0  0  0
   -6.1159   -1.3381   -0.8240 H   0  0  0  0  0  0  0  0  0  0  0  0
   -3.9847   -2.3412   -1.4519 H   0  0  0  0  0  0  0  0  0  0  0  0
   -1.4968   -2.2372   -1.4077 H   0  0  0  0  0  0  0  0  0  0  0  0
   -1.7347    2.0383    1.2012 H   0  0  0  0  0  0  0  0  0  0  0  0
    3.1004    2.2013    1.2634 H   0  0  0  0  0  0  0  0  0  0  0  0
    5.5752    2.2989    1.3038 H   0  0  0  0  0  0  0  0  0  0  0  0
    5.7784   -1.3855   -0.9445 H   0  0  0  0  0  0  0  0  0  0  0  0
    7.8941   -1.3000    0.1497 H   0  0  0  0  0  0  0  0  0  0  0  0
    9.0808   -0.0214   -0.1380 H   0  0  0  0  0  0  0  0  0  0  0  0
    7.8823   -0.3592   -1.3931 H   0  0  0  0  0  0  0  0  0  0  0  0
   -6.1243    1.0892    2.1496 H   0  0  0  0  0  0  0  0  0  0  0  0
   -5.4772   -0.5414    2.1894 H   0  0  0  0  0  0  0  0  0  0  0  0
   -7.0339   -0.2343    1.3897 H   0  0  0  0  0  0  0  0  0  0  0  0
  1  2  1  0
  2  3  1  0
  3  4  2  0
  4  5  1  0
  5  6  1  0
  6  7  2  0
  7  8  1  0
  8  9  2  0
  9 10  1  0
 10 11  1  0
  8 12  1  0
 12 13  1  0
 13 14  2  0
 14 15  1  0
 15 16  2  0
 15 17  1  0
 17 18  1  0
 18 19  1  0
 19 20  2  0
 20 21  1  0
 21 22  2  0
 22 23  1  0
 22 24  1  0
 24 25  1  0
  2 26  1  0
 11  2  1  0
 10  5  2  0
 14  7  1  0
 19 13  1  0
 23 18  2  0
  1 27  1  0
  1 28  1  0
  1 29  1  0
  3 30  1  0
  4 31  1  0
  6 32  1  0
  9 33  1  0
 20 34  1  0
 21 35  1  0
 23 36  1  0
 25 37  1  0
 25 38  1  0
 25 39  1  0
 26 40  1  0
 26 41  1  0
 26 42  1  0
M  END
>  <Name>  (354) 
Tuberostan

>  <PubChem ID>  (354) 
44257532

>  <CDB ID>  (354) 
CDB0354

>  <Smiles>  (354) 
CC1(C=CC2=CC3=C(C=C2O1)OC4=C3C(=O)OC5=C4C=CC(=C5)OC)C

>  <Chemical class>  (354) 
4,7-Dioxygenated Coumarins

>  <Natural source>  (354) 
Pueraria tuberosa

>  <Molecular Formula>  (354) 
C21H16O5

>  <InChI-Key>  (354) 
KIFXUUIGSBVTCM-UHFFFAOYSA-N

>  <Total Molweight>  (354) 
348.353

>  <cLogP>  (354) 
4.4888

>  <cLogS>  (354) 
-6.214

>  <H-Acceptors>  (354) 
5

>  <H-Donors>  (354) 
0

>  <Rotatable Bonds>  (354) 
1

>  <Polar Surface Area>  (354) 
57.9

$$$$
CDB0355
     RDKit          3D

 30 34  0  0  0  0  0  0  0  0999 V2000
    5.7886   -0.3011    0.0054 C   0  0  0  0  0  0  0  0  0  0  0  0
    5.0264    0.3419   -1.0357 O   0  0  0  0  0  0  0  0  0  0  0  0
    3.7550    0.1429   -0.5897 C   0  0  0  0  0  0  0  0  0  0  0  0
    3.7211   -0.5491    0.6010 C   0  0  0  0  0  0  0  0  0  0  0  0
    4.9685   -0.8687    1.0472 O   0  0  0  0  0  0  0  0  0  0  0  0
    2.5448   -0.8719    1.2517 C   0  0  0  0  0  0  0  0  0  0  0  0
    1.3917   -0.4356    0.5975 C   0  0  0  0  0  0  0  0  0  0  0  0
    1.3837    0.2717   -0.6161 C   0  0  0  0  0  0  0  0  0  0  0  0
    2.6108    0.5765   -1.2401 C   0  0  0  0  0  0  0  0  0  0  0  0
    0.0148    0.5051   -0.9043 C   0  0  0  0  0  0  0  0  0  0  0  0
   -0.6904   -0.0607    0.1250 C   0  0  0  0  0  0  0  0  0  0  0  0
    0.1139   -0.6352    1.0450 O   0  0  0  0  0  0  0  0  0  0  0  0
   -2.1186   -0.0679    0.2546 C   0  0  0  0  0  0  0  0  0  0  0  0
   -2.8087    0.5718   -0.7868 C   0  0  0  0  0  0  0  0  0  0  0  0
   -4.1959    0.6454   -0.7993 C   0  0  0  0  0  0  0  0  0  0  0  0
   -4.8946    0.0652    0.2541 C   0  0  0  0  0  0  0  0  0  0  0  0
   -4.2283   -0.5771    1.3019 C   0  0  0  0  0  0  0  0  0  0  0  0
   -2.8306   -0.6446    1.3030 C   0  0  0  0  0  0  0  0  0  0  0  0
   -6.2559    0.1455    0.2281 O   0  0  0  0  0  0  0  0  0  0  0  0
   -2.1002    1.1714   -1.8742 O   0  0  0  0  0  0  0  0  0  0  0  0
   -0.6832    1.1665   -1.9823 C   0  0  0  0  0  0  0  0  0  0  0  0
   -0.1139    1.6925   -2.9319 O   0  0  0  0  0  0  0  0  0  0  0  0
    6.4633    0.4374    0.4535 H   0  0  0  0  0  0  0  0  0  0  0  0
    6.3897   -1.1006   -0.4425 H   0  0  0  0  0  0  0  0  0  0  0  0
    2.5135   -1.4144    2.1856 H   0  0  0  0  0  0  0  0  0  0  0  0
    2.6620    1.1201   -2.1775 H   0  0  0  0  0  0  0  0  0  0  0  0
   -4.7236    1.1413   -1.6071 H   0  0  0  0  0  0  0  0  0  0  0  0
   -4.7789   -1.0286    2.1223 H   0  0  0  0  0  0  0  0  0  0  0  0
   -2.3106   -1.1436    2.1170 H   0  0  0  0  0  0  0  0  0  0  0  0
   -6.6142   -0.2962    1.0158 H   0  0  0  0  0  0  0  0  0  0  0  0
  1  2  1  0
  2  3  1  0
  3  4  2  0
  4  5  1  0
  4  6  1  0
  6  7  2  0
  7  8  1  0
  8  9  2  0
  8 10  1  0
 10 11  2  0
 11 12  1  0
 11 13  1  0
 13 14  1  0
 14 15  2  0
 15 16  1  0
 16 17  2  0
 17 18  1  0
 16 19  1  0
 14 20  1  0
 20 21  1  0
 21 22  2  0
  5  1  1  0
  9  3  1  0
 12  7  1  0
 21 10  1  0
 18 13  2  0
  1 23  1  0
  1 24  1  0
  6 25  1  0
  9 26  1  0
 15 27  1  0
 17 28  1  0
 18 29  1  0
 19 30  1  0
M  END
>  <Name>  (355) 
Medicagol

>  <PubChem ID>  (355) 
5319322

>  <CDB ID>  (355) 
CDB0355

>  <Smiles>  (355) 
C1OC2=C(O1)C=C3C(=C2)C4=C(O3)C5=C(C=C(C=C5)O)OC4=O

>  <Chemical class>  (355) 
4,7-Dioxygenated Coumarins

>  <Natural source>  (355) 
Medicago sativa

>  <Molecular Formula>  (355) 
C16H8O6

>  <InChI-Key>  (355) 
URMVEUAWRUQHON-UHFFFAOYSA-N

>  <Total Molweight>  (355) 
296.234

>  <cLogP>  (355) 
3.2978

>  <cLogS>  (355) 
-5.352

>  <H-Acceptors>  (355) 
6

>  <H-Donors>  (355) 
1

>  <Rotatable Bonds>  (355) 
0

>  <Polar Surface Area>  (355) 
78.13

$$$$
CDB0356
     RDKit          3D

 33 37  0  0  0  0  0  0  0  0999 V2000
    6.4448    0.3796   -0.6130 C   0  0  0  0  0  0  0  0  0  0  0  0
    5.5831   -0.4227    0.1849 O   0  0  0  0  0  0  0  0  0  0  0  0
    4.2375   -0.2213    0.0429 C   0  0  0  0  0  0  0  0  0  0  0  0
    3.4413   -1.0373    0.8515 C   0  0  0  0  0  0  0  0  0  0  0  0
    2.0582   -0.9143    0.7857 C   0  0  0  0  0  0  0  0  0  0  0  0
    1.4476    0.0088   -0.0727 C   0  0  0  0  0  0  0  0  0  0  0  0
    2.2369    0.8215   -0.8780 C   0  0  0  0  0  0  0  0  0  0  0  0
    3.6329    0.7050   -0.8188 C   0  0  0  0  0  0  0  0  0  0  0  0
    0.0145    0.0187   -0.0288 C   0  0  0  0  0  0  0  0  0  0  0  0
   -0.7646   -0.7818    0.7645 C   0  0  0  0  0  0  0  0  0  0  0  0
   -2.1080   -0.4289    0.4777 C   0  0  0  0  0  0  0  0  0  0  0  0
   -3.3773   -0.8485    0.9255 C   0  0  0  0  0  0  0  0  0  0  0  0
   -4.4700   -0.2120    0.3586 C   0  0  0  0  0  0  0  0  0  0  0  0
   -4.3482    0.7784   -0.5912 C   0  0  0  0  0  0  0  0  0  0  0  0
   -3.1273    1.2244   -1.0625 C   0  0  0  0  0  0  0  0  0  0  0  0
   -2.0262    0.5840   -0.4922 C   0  0  0  0  0  0  0  0  0  0  0  0
   -0.7193    0.8522   -0.7970 O   0  0  0  0  0  0  0  0  0  0  0  0
   -5.5588    1.2530   -0.9992 O   0  0  0  0  0  0  0  0  0  0  0  0
   -6.4532    0.4515   -0.2008 C   0  0  0  0  0  0  0  0  0  0  0  0
   -5.7704   -0.4795    0.6625 O   0  0  0  0  0  0  0  0  0  0  0  0
   -0.1478   -1.7380    1.6542 C   0  0  0  0  0  0  0  0  0  0  0  0
   -0.7847   -2.4836    2.3897 O   0  0  0  0  0  0  0  0  0  0  0  0
    1.2731   -1.7638    1.6258 O   0  0  0  0  0  0  0  0  0  0  0  0
    6.3294    1.4417   -0.3729 H   0  0  0  0  0  0  0  0  0  0  0  0
    7.4758    0.0959   -0.3806 H   0  0  0  0  0  0  0  0  0  0  0  0
    6.2807    0.1943   -1.6796 H   0  0  0  0  0  0  0  0  0  0  0  0
    3.8996   -1.7579    1.5223 H   0  0  0  0  0  0  0  0  0  0  0  0
    1.7816    1.5442   -1.5508 H   0  0  0  0  0  0  0  0  0  0  0  0
    4.2217    1.3537   -1.4600 H   0  0  0  0  0  0  0  0  0  0  0  0
   -3.4977   -1.6261    1.6723 H   0  0  0  0  0  0  0  0  0  0  0  0
   -3.0271    2.0007   -1.8073 H   0  0  0  0  0  0  0  0  0  0  0  0
   -7.1132   -0.1107   -0.8712 H   0  0  0  0  0  0  0  0  0  0  0  0
   -7.0652    1.1189    0.4169 H   0  0  0  0  0  0  0  0  0  0  0  0
  1  2  1  0
  2  3  1  0
  3  4  1  0
  4  5  2  0
  5  6  1  0
  6  7  2  0
  7  8  1  0
  6  9  1  0
  9 10  2  0
 10 11  1  0
 11 12  2  0
 12 13  1  0
 13 14  2  0
 14 15  1  0
 15 16  2  0
 16 17  1  0
 14 18  1  0
 18 19  1  0
 19 20  1  0
 10 21  1  0
 21 22  2  0
 21 23  1  0
  8  3  2  0
 23  5  1  0
 17  9  1  0
 16 11  1  0
 20 13  1  0
  1 24  1  0
  1 25  1  0
  1 26  1  0
  4 27  1  0
  7 28  1  0
  8 29  1  0
 12 30  1  0
 15 31  1  0
 19 32  1  0
 19 33  1  0
M  END
>  <Name>  (356) 
Flemichapparin C

>  <PubChem ID>  (356) 
11088179

>  <CDB ID>  (356) 
CDB0356

>  <Smiles>  (356) 
COC1=CC2=C(C=C1)C3=C(C4=CC5=C(C=C4O3)OCO5)C(=O)O2

>  <Chemical class>  (356) 
4,7-Dioxygenated Coumarins

>  <Natural source>  (356) 
Flemingia chappar

>  <Molecular Formula>  (356) 
C17H10O6

>  <InChI-Key>  (356) 
ZIZYKBRERUNPAU-UHFFFAOYSA-N

>  <Total Molweight>  (356) 
310.26

>  <cLogP>  (356) 
3.5735

>  <cLogS>  (356) 
-5.666

>  <H-Acceptors>  (356) 
6

>  <H-Donors>  (356) 
0

>  <Rotatable Bonds>  (356) 
1

>  <Polar Surface Area>  (356) 
67.13

$$$$
CDB0357
     RDKit          3D

 45 48  0  0  0  0  0  0  0  0999 V2000
   -4.3448    0.1463    2.4443 C   0  0  0  0  0  0  0  0  0  0  0  0
   -3.4784    1.0246    1.5853 C   0  0  0  0  0  0  0  0  0  0  0  0
   -2.1838    0.7956    1.2863 C   0  0  0  0  0  0  0  0  0  0  0  0
   -1.3055   -0.3470    1.7255 C   0  0  0  0  0  0  0  0  0  0  0  0
   -0.7434   -1.1274    0.5512 C   0  0  0  0  0  0  0  0  0  0  0  0
   -1.4508   -2.2700    0.0803 C   0  0  0  0  0  0  0  0  0  0  0  0
   -0.9652   -3.0687   -0.9647 C   0  0  0  0  0  0  0  0  0  0  0  0
    0.2130   -2.7492   -1.6274 C   0  0  0  0  0  0  0  0  0  0  0  0
    0.8755   -1.6066   -1.1876 C   0  0  0  0  0  0  0  0  0  0  0  0
    0.4555   -0.7786   -0.1383 C   0  0  0  0  0  0  0  0  0  0  0  0
    1.4502    0.2546   -0.0761 C   0  0  0  0  0  0  0  0  0  0  0  0
    2.3638   -0.0461   -1.0566 C   0  0  0  0  0  0  0  0  0  0  0  0
    2.0386   -1.1587   -1.7383 O   0  0  0  0  0  0  0  0  0  0  0  0
    3.5493    0.6953   -1.3781 C   0  0  0  0  0  0  0  0  0  0  0  0
    3.7643    1.8345   -0.5930 C   0  0  0  0  0  0  0  0  0  0  0  0
    4.8708    2.6567   -0.7802 C   0  0  0  0  0  0  0  0  0  0  0  0
    5.7735    2.3155   -1.7818 C   0  0  0  0  0  0  0  0  0  0  0  0
    5.5787    1.1839   -2.5768 C   0  0  0  0  0  0  0  0  0  0  0  0
    4.4616    0.3670   -2.3766 C   0  0  0  0  0  0  0  0  0  0  0  0
    6.8817    3.0719   -2.0256 O   0  0  0  0  0  0  0  0  0  0  0  0
    2.8394    2.1883    0.4325 O   0  0  0  0  0  0  0  0  0  0  0  0
    1.6631    1.4433    0.7296 C   0  0  0  0  0  0  0  0  0  0  0  0
    0.9050    1.8270    1.6115 O   0  0  0  0  0  0  0  0  0  0  0  0
   -1.6514   -4.1960   -1.3316 O   0  0  0  0  0  0  0  0  0  0  0  0
   -2.6053   -2.6210    0.7465 O   0  0  0  0  0  0  0  0  0  0  0  0
   -3.7527   -2.4875   -0.0929 C   0  0  0  0  0  0  0  0  0  0  0  0
   -4.1778    2.2502    1.0570 C   0  0  0  0  0  0  0  0  0  0  0  0
   -5.2298   -0.1716    1.8830 H   0  0  0  0  0  0  0  0  0  0  0  0
   -3.8434   -0.7569    2.7960 H   0  0  0  0  0  0  0  0  0  0  0  0
   -4.6802    0.7002    3.3275 H   0  0  0  0  0  0  0  0  0  0  0  0
   -1.6671    1.5305    0.6692 H   0  0  0  0  0  0  0  0  0  0  0  0
   -0.4774    0.0442    2.3233 H   0  0  0  0  0  0  0  0  0  0  0  0
   -1.8150   -1.0271    2.4137 H   0  0  0  0  0  0  0  0  0  0  0  0
    0.6133   -3.3386   -2.4415 H   0  0  0  0  0  0  0  0  0  0  0  0
    5.0100    3.5323   -0.1566 H   0  0  0  0  0  0  0  0  0  0  0  0
    6.2996    0.9393   -3.3531 H   0  0  0  0  0  0  0  0  0  0  0  0
    4.3158   -0.5127   -2.9980 H   0  0  0  0  0  0  0  0  0  0  0  0
    6.8970    3.8208   -1.4065 H   0  0  0  0  0  0  0  0  0  0  0  0
   -1.1262   -4.6933   -1.9791 H   0  0  0  0  0  0  0  0  0  0  0  0
   -3.6881   -1.6140   -0.7521 H   0  0  0  0  0  0  0  0  0  0  0  0
   -4.6241   -2.3548    0.5552 H   0  0  0  0  0  0  0  0  0  0  0  0
   -3.9157   -3.3974   -0.6772 H   0  0  0  0  0  0  0  0  0  0  0  0
   -3.5207    2.8725    0.4404 H   0  0  0  0  0  0  0  0  0  0  0  0
   -5.0348    1.9605    0.4401 H   0  0  0  0  0  0  0  0  0  0  0  0
   -4.5381    2.8680    1.8861 H   0  0  0  0  0  0  0  0  0  0  0  0
  1  2  1  0
  2  3  2  3
  3  4  1  0
  4  5  1  0
  5  6  1  0
  6  7  2  0
  7  8  1  0
  8  9  2  0
  9 10  1  0
 10 11  1  0
 11 12  2  0
 12 13  1  0
 12 14  1  0
 14 15  1  0
 15 16  2  0
 16 17  1  0
 17 18  2  0
 18 19  1  0
 17 20  1  0
 15 21  1  0
 21 22  1  0
 22 23  2  0
  7 24  1  0
  6 25  1  0
 25 26  1  0
  2 27  1  0
 10  5  2  0
 13  9  1  0
 22 11  1  0
 19 14  2  0
  1 28  1  0
  1 29  1  0
  1 30  1  0
  3 31  1  0
  4 32  1  0
  4 33  1  0
  8 34  1  0
 16 35  1  0
 18 36  1  0
 19 37  1  0
 20 38  1  0
 24 39  1  0
 26 40  1  0
 26 41  1  0
 26 42  1  0
 27 43  1  0
 27 44  1  0
 27 45  1  0
M  END
>  <Name>  (357) 
Mirificoumestan

>  <PubChem ID>  (357) 
13964266

>  <CDB ID>  (357) 
CDB0357

>  <Smiles>  (357) 
CC(=CCC1=C(C(=CC2=C1C3=C(O2)C4=C(C=C(C=C4)O)OC3=O)O)OC)C

>  <Chemical class>  (357) 
4,7-Dioxygenated Coumarins

>  <Natural source>  (357) 
Pueraria mirifica

>  <Molecular Formula>  (357) 
C21H18O6

>  <InChI-Key>  (357) 
DLPHHYMGBGKBCN-UHFFFAOYSA-N

>  <Total Molweight>  (357) 
366.368

>  <cLogP>  (357) 
4.7932

>  <cLogS>  (357) 
-5.302

>  <H-Acceptors>  (357) 
6

>  <H-Donors>  (357) 
2

>  <Rotatable Bonds>  (357) 
3

>  <Polar Surface Area>  (357) 
89.13

$$$$
CDB0358
     RDKit          3D

 48 51  0  0  0  0  0  0  0  0999 V2000
   -4.8784   -0.7404   -0.3846 C   0  0  0  0  0  0  0  0  0  0  0  0
   -3.7130   -1.4330    0.3261 C   0  0  0  0  0  0  0  0  0  0  0  0
   -3.2868   -2.6798   -0.4478 C   0  0  0  0  0  0  0  0  0  0  0  0
   -2.5334   -0.4780    0.5958 C   0  0  0  0  0  0  0  0  0  0  0  0
   -1.8877    0.1365   -0.6495 C   0  0  0  0  0  0  0  0  0  0  0  0
   -0.8181    1.1461   -0.2709 C   0  0  0  0  0  0  0  0  0  0  0  0
   -1.1962    2.5099   -0.0976 C   0  0  0  0  0  0  0  0  0  0  0  0
   -0.2692    3.4899    0.2861 C   0  0  0  0  0  0  0  0  0  0  0  0
    1.0725    3.1781    0.4771 C   0  0  0  0  0  0  0  0  0  0  0  0
    1.4279    1.8438    0.3009 C   0  0  0  0  0  0  0  0  0  0  0  0
    0.5493    0.8122   -0.0528 C   0  0  0  0  0  0  0  0  0  0  0  0
    1.3677   -0.3653   -0.0790 C   0  0  0  0  0  0  0  0  0  0  0  0
    2.6368    0.0545    0.2359 C   0  0  0  0  0  0  0  0  0  0  0  0
    2.6980    1.3783    0.4672 O   0  0  0  0  0  0  0  0  0  0  0  0
    3.8090   -0.7670    0.3327 C   0  0  0  0  0  0  0  0  0  0  0  0
    3.5989   -2.1267    0.0752 C   0  0  0  0  0  0  0  0  0  0  0  0
    4.6388   -3.0463    0.1299 C   0  0  0  0  0  0  0  0  0  0  0  0
    5.9102   -2.5832    0.4502 C   0  0  0  0  0  0  0  0  0  0  0  0
    6.1448   -1.2305    0.7116 C   0  0  0  0  0  0  0  0  0  0  0  0
    5.0874   -0.3158    0.6526 C   0  0  0  0  0  0  0  0  0  0  0  0
    6.9209   -3.4973    0.5002 O   0  0  0  0  0  0  0  0  0  0  0  0
    2.2980   -2.6075   -0.2525 O   0  0  0  0  0  0  0  0  0  0  0  0
    1.1466   -1.7760   -0.3407 C   0  0  0  0  0  0  0  0  0  0  0  0
    0.0590   -2.2627   -0.6232 O   0  0  0  0  0  0  0  0  0  0  0  0
   -0.6837    4.7777    0.5017 O   0  0  0  0  0  0  0  0  0  0  0  0
   -2.5378    2.7911   -0.2438 O   0  0  0  0  0  0  0  0  0  0  0  0
   -2.8008    3.8639   -1.1466 C   0  0  0  0  0  0  0  0  0  0  0  0
   -4.1990   -1.8868    1.5989 O   0  0  0  0  0  0  0  0  0  0  0  0
   -5.1806    0.1649    0.1540 H   0  0  0  0  0  0  0  0  0  0  0  0
   -5.7593   -1.3926   -0.4098 H   0  0  0  0  0  0  0  0  0  0  0  0
   -4.6311   -0.4656   -1.4143 H   0  0  0  0  0  0  0  0  0  0  0  0
   -2.9429   -2.4414   -1.4586 H   0  0  0  0  0  0  0  0  0  0  0  0
   -2.4862   -3.2101    0.0796 H   0  0  0  0  0  0  0  0  0  0  0  0
   -4.1193   -3.3885   -0.5302 H   0  0  0  0  0  0  0  0  0  0  0  0
   -2.8816    0.3248    1.2611 H   0  0  0  0  0  0  0  0  0  0  0  0
   -1.7723   -1.0078    1.1853 H   0  0  0  0  0  0  0  0  0  0  0  0
   -2.6408    0.6231   -1.2787 H   0  0  0  0  0  0  0  0  0  0  0  0
   -1.4522   -0.6271   -1.2963 H   0  0  0  0  0  0  0  0  0  0  0  0
    1.8150    3.9107    0.7645 H   0  0  0  0  0  0  0  0  0  0  0  0
    4.4668   -4.0986   -0.0707 H   0  0  0  0  0  0  0  0  0  0  0  0
    7.1394   -0.8728    0.9616 H   0  0  0  0  0  0  0  0  0  0  0  0
    5.2684    0.7367    0.8558 H   0  0  0  0  0  0  0  0  0  0  0  0
    7.7468   -3.0442    0.7378 H   0  0  0  0  0  0  0  0  0  0  0  0
    0.0503    5.2915    0.8763 H   0  0  0  0  0  0  0  0  0  0  0  0
   -3.7503    3.6489   -1.6467 H   0  0  0  0  0  0  0  0  0  0  0  0
   -2.9242    4.8002   -0.5949 H   0  0  0  0  0  0  0  0  0  0  0  0
   -2.0330    3.9666   -1.9222 H   0  0  0  0  0  0  0  0  0  0  0  0
   -4.4745   -1.1042    2.1064 H   0  0  0  0  0  0  0  0  0  0  0  0
  1  2  1  0
  2  3  1  0
  2  4  1  0
  4  5  1  0
  5  6  1  0
  6  7  1  0
  7  8  2  0
  8  9  1  0
  9 10  2  0
 10 11  1  0
 11 12  1  0
 12 13  2  0
 13 14  1  0
 13 15  1  0
 15 16  1  0
 16 17  2  0
 17 18  1  0
 18 19  2  0
 19 20  1  0
 18 21  1  0
 16 22  1  0
 22 23  1  0
 23 24  2  0
  8 25  1  0
  7 26  1  0
 26 27  1  0
  2 28  1  0
 11  6  2  0
 14 10  1  0
 23 12  1  0
 20 15  2  0
  1 29  1  0
  1 30  1  0
  1 31  1  0
  3 32  1  0
  3 33  1  0
  3 34  1  0
  4 35  1  0
  4 36  1  0
  5 37  1  0
  5 38  1  0
  9 39  1  0
 17 40  1  0
 19 41  1  0
 20 42  1  0
 21 43  1  0
 25 44  1  0
 27 45  1  0
 27 46  1  0
 27 47  1  0
 28 48  1  0
M  END
>  <Name>  (358) 
Mirificoumestan Hydrate

>  <PubChem ID>  (358) 
13964267

>  <CDB ID>  (358) 
CDB0358

>  <Smiles>  (358) 
CC(C)(CCC1=C(C(=CC2=C1C3=C(O2)C4=C(C=C(C=C4)O)OC3=O)O)OC)O

>  <Chemical class>  (358) 
4,7-Dioxygenated Coumarins

>  <Natural source>  (358) 
Pueraria mirifica

>  <Molecular Formula>  (358) 
C21H20O7

>  <InChI-Key>  (358) 
TUTUMQZQMWKQLL-UHFFFAOYSA-N

>  <Total Molweight>  (358) 
384.383

>  <cLogP>  (358) 
3.7978

>  <cLogS>  (358) 
-5.116

>  <H-Acceptors>  (358) 
7

>  <H-Donors>  (358) 
3

>  <Rotatable Bonds>  (358) 
4

>  <Polar Surface Area>  (358) 
109.36

$$$$
CDB0359
     RDKit          3D

 49 52  0  0  0  0  0  0  0  0999 V2000
   -3.3421   -3.0654   -0.3896 C   0  0  0  0  0  0  0  0  0  0  0  0
   -2.7040   -2.7545    0.8546 O   0  0  0  0  0  0  0  0  0  0  0  0
   -1.3590   -2.5270    0.6609 C   0  0  0  0  0  0  0  0  0  0  0  0
   -0.5071   -3.6272    0.5194 C   0  0  0  0  0  0  0  0  0  0  0  0
   -0.9857   -4.9035    0.6418 O   0  0  0  0  0  0  0  0  0  0  0  0
    0.8484   -3.4717    0.2805 C   0  0  0  0  0  0  0  0  0  0  0  0
    1.3120   -2.1605    0.2340 C   0  0  0  0  0  0  0  0  0  0  0  0
    2.6132   -1.8274    0.0035 O   0  0  0  0  0  0  0  0  0  0  0  0
    2.6622   -0.4834    0.0447 C   0  0  0  0  0  0  0  0  0  0  0  0
    1.4378    0.0819    0.3063 C   0  0  0  0  0  0  0  0  0  0  0  0
    1.3409    1.5312    0.3834 C   0  0  0  0  0  0  0  0  0  0  0  0
    0.3168    2.1557    0.6425 O   0  0  0  0  0  0  0  0  0  0  0  0
    2.5553    2.2398    0.1521 O   0  0  0  0  0  0  0  0  0  0  0  0
    3.8043    1.6092   -0.1172 C   0  0  0  0  0  0  0  0  0  0  0  0
    3.8963    0.2142   -0.1759 C   0  0  0  0  0  0  0  0  0  0  0  0
    5.1264   -0.3848   -0.4373 C   0  0  0  0  0  0  0  0  0  0  0  0
    6.2543    0.4189   -0.6374 C   0  0  0  0  0  0  0  0  0  0  0  0
    6.1373    1.8101   -0.5740 C   0  0  0  0  0  0  0  0  0  0  0  0
    7.2189    2.6185   -0.7649 O   0  0  0  0  0  0  0  0  0  0  0  0
    4.9151    2.4202   -0.3140 C   0  0  0  0  0  0  0  0  0  0  0  0
    0.5225   -1.0179    0.4272 C   0  0  0  0  0  0  0  0  0  0  0  0
   -0.8720   -1.1962    0.6706 C   0  0  0  0  0  0  0  0  0  0  0  0
   -1.8268   -0.0473    0.9292 C   0  0  0  0  0  0  0  0  0  0  0  0
   -2.4212    0.5744   -0.3532 C   0  0  2  0  0  0  0  0  0  0  0  0
   -1.3572    0.8655   -1.2751 O   0  0  0  0  0  0  0  0  0  0  0  0
   -3.2370    1.8747   -0.0679 C   0  0  0  0  0  0  0  0  0  0  0  0
   -4.4228    1.6084    0.8647 C   0  0  0  0  0  0  0  0  0  0  0  0
   -3.7533    2.5097   -1.3655 C   0  0  0  0  0  0  0  0  0  0  0  0
   -2.4137    2.8589    0.5679 O   0  0  0  0  0  0  0  0  0  0  0  0
   -3.2840   -4.1400   -0.5871 H   0  0  0  0  0  0  0  0  0  0  0  0
   -4.3983   -2.7947   -0.2981 H   0  0  0  0  0  0  0  0  0  0  0  0
   -2.9198   -2.5079   -1.2334 H   0  0  0  0  0  0  0  0  0  0  0  0
   -1.8600   -4.8205    1.0662 H   0  0  0  0  0  0  0  0  0  0  0  0
    1.5134   -4.3161    0.1539 H   0  0  0  0  0  0  0  0  0  0  0  0
    5.2150   -1.4673   -0.4870 H   0  0  0  0  0  0  0  0  0  0  0  0
    7.2105   -0.0545   -0.8407 H   0  0  0  0  0  0  0  0  0  0  0  0
    8.0007    2.0662   -0.9312 H   0  0  0  0  0  0  0  0  0  0  0  0
    4.8346    3.5010   -0.2660 H   0  0  0  0  0  0  0  0  0  0  0  0
   -1.2968    0.6988    1.5265 H   0  0  0  0  0  0  0  0  0  0  0  0
   -2.6352   -0.3919    1.5846 H   0  0  0  0  0  0  0  0  0  0  0  0
   -3.0683   -0.1616   -0.8435 H   0  0  0  0  0  0  0  0  0  0  0  0
   -1.7547    1.0672   -2.1387 H   0  0  0  0  0  0  0  0  0  0  0  0
   -4.0894    1.3194    1.8667 H   0  0  0  0  0  0  0  0  0  0  0  0
   -5.0767    0.8245    0.4694 H   0  0  0  0  0  0  0  0  0  0  0  0
   -5.0205    2.5170    1.0045 H   0  0  0  0  0  0  0  0  0  0  0  0
   -2.9302    2.8723   -1.9908 H   0  0  0  0  0  0  0  0  0  0  0  0
   -4.3695    3.3906   -1.1498 H   0  0  0  0  0  0  0  0  0  0  0  0
   -4.3551    1.8034   -1.9464 H   0  0  0  0  0  0  0  0  0  0  0  0
   -1.4758    2.6696    0.3364 H   0  0  0  0  0  0  0  0  0  0  0  0
  1  2  1  0
  2  3  1  0
  3  4  2  0
  4  5  1  0
  4  6  1  0
  6  7  2  0
  7  8  1  0
  8  9  1  0
  9 10  2  0
 10 11  1  0
 11 12  2  0
 11 13  1  0
 13 14  1  0
 14 15  1  0
 15 16  2  0
 16 17  1  0
 17 18  2  0
 18 19  1  0
 18 20  1  0
 10 21  1  0
 21 22  2  0
 22 23  1  0
 23 24  1  0
 24 25  1  0
 24 26  1  0
 26 27  1  0
 26 28  1  0
 26 29  1  0
 22  3  1  0
 21  7  1  0
 15  9  1  0
 20 14  2  0
  1 30  1  0
  1 31  1  0
  1 32  1  0
  5 33  1  0
  6 34  1  0
 16 35  1  0
 17 36  1  0
 19 37  1  0
 20 38  1  0
 23 39  1  0
 23 40  1  0
 24 41  1  6
 25 42  1  0
 27 43  1  0
 27 44  1  0
 27 45  1  0
 28 46  1  0
 28 47  1  0
 28 48  1  0
 29 49  1  0
M  END
>  <Name>  (359) 
Mirificoumestan Glycol

>  <PubChem ID>  (359) 
13964268

>  <CDB ID>  (359) 
CDB0359

>  <Smiles>  (359) 
COC1=C(O)C=C2OC3=C(C(=O)OC4=C3C=CC(O)=C4)C2=C1C[C@H](O)C(C)(C)O

>  <Chemical class>  (359) 
4,7-Dioxygenated Coumarins

>  <Natural source>  (359) 
Pueraria mirifica

>  <Molecular Formula>  (359) 
C21H20O8

>  <InChI-Key>  (359) 
FDDICYCDJLNBGT-HNNXBMFYSA-N

>  <Total Molweight>  (359) 
400.382

>  <cLogP>  (359) 
2.776

>  <cLogS>  (359) 
-4.717

>  <H-Acceptors>  (359) 
8

>  <H-Donors>  (359) 
4

>  <Rotatable Bonds>  (359) 
4

>  <Polar Surface Area>  (359) 
129.59

$$$$
CDB0360
     RDKit          3D

 29 32  0  0  0  0  0  0  0  0999 V2000
    3.7653   -1.6019    0.8955 C   0  0  0  0  0  0  0  0  0  0  0  0
    2.3676   -1.5988    0.8546 C   0  0  0  0  0  0  0  0  0  0  0  0
    1.7076   -0.4768    0.3654 C   0  0  0  0  0  0  0  0  0  0  0  0
    2.4513    0.6315   -0.0783 C   0  0  0  0  0  0  0  0  0  0  0  0
    3.8418    0.6396   -0.0422 C   0  0  0  0  0  0  0  0  0  0  0  0
    4.4864   -0.4909    0.4501 C   0  0  0  0  0  0  0  0  0  0  0  0
    5.8471   -0.5582    0.5168 O   0  0  0  0  0  0  0  0  0  0  0  0
    1.7967    1.8001   -0.5868 O   0  0  0  0  0  0  0  0  0  0  0  0
    0.3865    1.9181   -0.6763 C   0  0  0  0  0  0  0  0  0  0  0  0
   -0.1626    2.9247   -1.1139 O   0  0  0  0  0  0  0  0  0  0  0  0
   -0.3605    0.7775   -0.2191 C   0  0  0  0  0  0  0  0  0  0  0  0
    0.2853   -0.3277    0.2626 C   0  0  0  0  0  0  0  0  0  0  0  0
   -0.5778   -1.2949    0.6437 O   0  0  0  0  0  0  0  0  0  0  0  0
   -1.8282   -0.7909    0.3970 C   0  0  0  0  0  0  0  0  0  0  0  0
   -3.0295   -1.4518    0.6401 C   0  0  0  0  0  0  0  0  0  0  0  0
   -4.1939   -0.7537    0.3143 C   0  0  0  0  0  0  0  0  0  0  0  0
   -4.1652    0.5325   -0.2242 C   0  0  0  0  0  0  0  0  0  0  0  0
   -2.9403    1.1644   -0.4545 C   0  0  0  0  0  0  0  0  0  0  0  0
   -1.7436    0.4967   -0.1406 C   0  0  0  0  0  0  0  0  0  0  0  0
   -2.9724    2.4333   -0.9875 O   0  0  0  0  0  0  0  0  0  0  0  0
   -5.3825   -1.3880    0.5467 O   0  0  0  0  0  0  0  0  0  0  0  0
    4.2957   -2.4720    1.2754 H   0  0  0  0  0  0  0  0  0  0  0  0
    1.8120   -2.4659    1.2025 H   0  0  0  0  0  0  0  0  0  0  0  0
    4.3917    1.5064   -0.3902 H   0  0  0  0  0  0  0  0  0  0  0  0
    6.2237    0.2716    0.1796 H   0  0  0  0  0  0  0  0  0  0  0  0
   -3.0563   -2.4503    1.0580 H   0  0  0  0  0  0  0  0  0  0  0  0
   -5.0810    1.0607   -0.4716 H   0  0  0  0  0  0  0  0  0  0  0  0
   -2.0565    2.7642   -1.1003 H   0  0  0  0  0  0  0  0  0  0  0  0
   -6.1085   -0.7994    0.2793 H   0  0  0  0  0  0  0  0  0  0  0  0
  1  2  1  0
  2  3  2  0
  3  4  1  0
  4  5  2  0
  5  6  1  0
  6  7  1  0
  4  8  1  0
  8  9  1  0
  9 10  2  0
  9 11  1  0
 11 12  2  0
 12 13  1  0
 13 14  1  0
 14 15  2  0
 15 16  1  0
 16 17  2  0
 17 18  1  0
 18 19  2  0
 18 20  1  0
 16 21  1  0
  6  1  2  0
 12  3  1  0
 19 11  1  0
 19 14  1  0
  1 22  1  0
  2 23  1  0
  5 24  1  0
  7 25  1  0
 15 26  1  0
 17 27  1  0
 20 28  1  0
 21 29  1  0
M  END
>  <Name>  (360) 
Repensol

>  <PubChem ID>  (360) 
44257533

>  <CDB ID>  (360) 
CDB0360

>  <Smiles>  (360) 
C1=CC2=C(C=C1O)OC(=O)C3=C2OC4=CC(=CC(=C43)O)O

>  <Chemical class>  (360) 
4,7-Dioxygenated Coumarins

>  <Natural source>  (360) 
Trifolium repens

>  <Molecular Formula>  (360) 
C15H8O6

>  <InChI-Key>  (360) 
CFUAZBGEKBTCSH-UHFFFAOYSA-N

>  <Total Molweight>  (360) 
284.223

>  <cLogP>  (360) 
2.495

>  <cLogS>  (360) 
-4.049

>  <H-Acceptors>  (360) 
6

>  <H-Donors>  (360) 
3

>  <Rotatable Bonds>  (360) 
0

>  <Polar Surface Area>  (360) 
100.13

$$$$
CDB0361
     RDKit          3D

 32 35  0  0  0  0  0  0  0  0999 V2000
    5.9651   -0.2828    0.0039 C   0  0  0  0  0  0  0  0  0  0  0  0
    4.7805   -1.0638   -0.1007 O   0  0  0  0  0  0  0  0  0  0  0  0
    3.5860   -0.3969   -0.0076 C   0  0  0  0  0  0  0  0  0  0  0  0
    3.4379    0.9814    0.1809 C   0  0  0  0  0  0  0  0  0  0  0  0
    2.1651    1.5592    0.2620 C   0  0  0  0  0  0  0  0  0  0  0  0
    1.0243    0.7483    0.1532 C   0  0  0  0  0  0  0  0  0  0  0  0
    1.2105   -0.6224   -0.0343 C   0  0  0  0  0  0  0  0  0  0  0  0
    2.4617   -1.2281   -0.1191 C   0  0  0  0  0  0  0  0  0  0  0  0
    0.0045   -1.2679   -0.1203 O   0  0  0  0  0  0  0  0  0  0  0  0
   -0.9325   -0.3032    0.0130 C   0  0  0  0  0  0  0  0  0  0  0  0
   -0.3762    0.9348    0.1811 C   0  0  0  0  0  0  0  0  0  0  0  0
   -1.2110    2.0952    0.3410 C   0  0  0  0  0  0  0  0  0  0  0  0
   -0.7412    3.2188    0.4937 O   0  0  0  0  0  0  0  0  0  0  0  0
   -2.6068    1.8511    0.3101 O   0  0  0  0  0  0  0  0  0  0  0  0
   -3.1660    0.5448    0.1327 C   0  0  0  0  0  0  0  0  0  0  0  0
   -2.3385   -0.5810   -0.0225 C   0  0  0  0  0  0  0  0  0  0  0  0
   -2.9077   -1.8395   -0.1934 C   0  0  0  0  0  0  0  0  0  0  0  0
   -4.3014   -1.9646   -0.2080 C   0  0  0  0  0  0  0  0  0  0  0  0
   -5.1056   -0.8315   -0.0519 C   0  0  0  0  0  0  0  0  0  0  0  0
   -4.5505    0.4323    0.1197 C   0  0  0  0  0  0  0  0  0  0  0  0
   -6.4662   -0.9258   -0.0624 O   0  0  0  0  0  0  0  0  0  0  0  0
    2.0990    2.9219    0.4482 O   0  0  0  0  0  0  0  0  0  0  0  0
    6.0287    0.4485   -0.8086 H   0  0  0  0  0  0  0  0  0  0  0  0
    6.8201   -0.9593   -0.0900 H   0  0  0  0  0  0  0  0  0  0  0  0
    6.0318    0.2039    0.9825 H   0  0  0  0  0  0  0  0  0  0  0  0
    4.2941    1.6424    0.2697 H   0  0  0  0  0  0  0  0  0  0  0  0
    2.5595   -2.2974   -0.2653 H   0  0  0  0  0  0  0  0  0  0  0  0
   -2.2806   -2.7194   -0.3146 H   0  0  0  0  0  0  0  0  0  0  0  0
   -4.7411   -2.9490   -0.3417 H   0  0  0  0  0  0  0  0  0  0  0  0
   -5.1855    1.3037    0.2398 H   0  0  0  0  0  0  0  0  0  0  0  0
   -6.7183   -1.8556   -0.1890 H   0  0  0  0  0  0  0  0  0  0  0  0
    1.1603    3.2018    0.4881 H   0  0  0  0  0  0  0  0  0  0  0  0
  1  2  1  0
  2  3  1  0
  3  4  2  0
  4  5  1  0
  5  6  2  0
  6  7  1  0
  7  8  2  0
  7  9  1  0
  9 10  1  0
 10 11  2  0
 11 12  1  0
 12 13  2  0
 12 14  1  0
 14 15  1  0
 15 16  1  0
 16 17  2  0
 17 18  1  0
 18 19  2  0
 19 20  1  0
 19 21  1  0
  5 22  1  0
  8  3  1  0
 11  6  1  0
 16 10  1  0
 20 15  2  0
  1 23  1  0
  1 24  1  0
  1 25  1  0
  4 26  1  0
  8 27  1  0
 17 28  1  0
 18 29  1  0
 20 30  1  0
 21 31  1  0
 22 32  1  0
M  END
>  <Name>  (361) 
Trifoliol

>  <PubChem ID>  (361) 
5487671

>  <CDB ID>  (361) 
CDB0361

>  <Smiles>  (361) 
COC1=CC(=C2C(=C1)OC3=C2C(=O)OC4=C3C=CC(=C4)O)O

>  <Chemical class>  (361) 
4,7-Dioxygenated Coumarins

>  <Natural source>  (361) 
Trifolium repens

>  <Molecular Formula>  (361) 
C16H10O6

>  <InChI-Key>  (361) 
YFVNQUXNYCREJW-UHFFFAOYSA-N

>  <Total Molweight>  (361) 
298.249

>  <cLogP>  (361) 
2.7707

>  <cLogS>  (361) 
-4.363

>  <H-Acceptors>  (361) 
6

>  <H-Donors>  (361) 
2

>  <Rotatable Bonds>  (361) 
1

>  <Polar Surface Area>  (361) 
89.13

$$$$
CDB0362
     RDKit          3D

 35 38  0  0  0  0  0  0  0  0999 V2000
   -5.0745   -1.8785   -0.1930 C   0  0  0  0  0  0  0  0  0  0  0  0
   -4.7264   -0.5024   -0.0948 O   0  0  0  0  0  0  0  0  0  0  0  0
   -3.3899   -0.2027   -0.0285 C   0  0  0  0  0  0  0  0  0  0  0  0
   -2.3533   -1.1353   -0.0495 C   0  0  0  0  0  0  0  0  0  0  0  0
   -1.0583   -0.6252    0.0285 C   0  0  0  0  0  0  0  0  0  0  0  0
   -0.7411    0.7315    0.1243 C   0  0  0  0  0  0  0  0  0  0  0  0
   -1.7996    1.6651    0.1446 C   0  0  0  0  0  0  0  0  0  0  0  0
   -3.1138    1.1686    0.0668 C   0  0  0  0  0  0  0  0  0  0  0  0
   -1.4689    2.9867    0.2387 O   0  0  0  0  0  0  0  0  0  0  0  0
   -2.5255    3.9361    0.2600 C   0  0  0  0  0  0  0  0  0  0  0  0
    0.6826    0.7806    0.1782 C   0  0  0  0  0  0  0  0  0  0  0  0
    1.1017   -0.5242    0.1120 C   0  0  0  0  0  0  0  0  0  0  0  0
    0.0727   -1.3913    0.0212 O   0  0  0  0  0  0  0  0  0  0  0  0
    2.4623   -0.9776    0.1324 C   0  0  0  0  0  0  0  0  0  0  0  0
    3.4217    0.0400    0.2300 C   0  0  0  0  0  0  0  0  0  0  0  0
    4.7844   -0.2382    0.2614 C   0  0  0  0  0  0  0  0  0  0  0  0
    5.1786   -1.5704    0.1925 C   0  0  0  0  0  0  0  0  0  0  0  0
    4.2394   -2.5997    0.0949 C   0  0  0  0  0  0  0  0  0  0  0  0
    2.8727   -2.3055    0.0643 C   0  0  0  0  0  0  0  0  0  0  0  0
    6.4962   -1.9219    0.2177 O   0  0  0  0  0  0  0  0  0  0  0  0
    3.0221    1.4091    0.3010 O   0  0  0  0  0  0  0  0  0  0  0  0
    1.6639    1.8415    0.2794 C   0  0  0  0  0  0  0  0  0  0  0  0
    1.3994    3.0361    0.3443 O   0  0  0  0  0  0  0  0  0  0  0  0
   -6.1659   -1.9447   -0.2361 H   0  0  0  0  0  0  0  0  0  0  0  0
   -4.7416   -2.4336    0.6902 H   0  0  0  0  0  0  0  0  0  0  0  0
   -4.6772   -2.3212   -1.1124 H   0  0  0  0  0  0  0  0  0  0  0  0
   -2.5055   -2.2031   -0.1214 H   0  0  0  0  0  0  0  0  0  0  0  0
   -3.9645    1.8446    0.0785 H   0  0  0  0  0  0  0  0  0  0  0  0
   -3.1046    3.9030   -0.6686 H   0  0  0  0  0  0  0  0  0  0  0  0
   -3.1690    3.7908    1.1339 H   0  0  0  0  0  0  0  0  0  0  0  0
   -2.0788    4.9320    0.3380 H   0  0  0  0  0  0  0  0  0  0  0  0
    5.5029    0.5698    0.3374 H   0  0  0  0  0  0  0  0  0  0  0  0
    4.5747   -3.6327    0.0425 H   0  0  0  0  0  0  0  0  0  0  0  0
    2.1463   -3.1102   -0.0117 H   0  0  0  0  0  0  0  0  0  0  0  0
    7.0368   -1.1173    0.2871 H   0  0  0  0  0  0  0  0  0  0  0  0
  1  2  1  0
  2  3  1  0
  3  4  1  0
  4  5  2  0
  5  6  1  0
  6  7  2  0
  7  8  1  0
  7  9  1  0
  9 10  1  0
  6 11  1  0
 11 12  2  0
 12 13  1  0
 12 14  1  0
 14 15  1  0
 15 16  2  0
 16 17  1  0
 17 18  2  0
 18 19  1  0
 17 20  1  0
 15 21  1  0
 21 22  1  0
 22 23  2  0
  8  3  2  0
 13  5  1  0
 22 11  1  0
 19 14  2  0
  1 24  1  0
  1 25  1  0
  1 26  1  0
  4 27  1  0
  8 28  1  0
 10 29  1  0
 10 30  1  0
 10 31  1  0
 16 32  1  0
 18 33  1  0
 19 34  1  0
 20 35  1  0
M  END
>  <Name>  (362) 
Wairol

>  <PubChem ID>  (362) 
5488650

>  <CDB ID>  (362) 
CDB0362

>  <Smiles>  (362) 
COC1=CC2=C(C(=C1)OC)C3=C(O2)C4=C(C=C(C=C4)O)OC3=O

>  <Chemical class>  (362) 
4,7-Dioxygenated Coumarins

>  <Natural source>  (362) 
Medicago sativa

>  <Molecular Formula>  (362) 
C17H12O6

>  <InChI-Key>  (362) 
GYNHMEBOILXPQT-UHFFFAOYSA-N

>  <Total Molweight>  (362) 
312.276

>  <cLogP>  (362) 
3.0464

>  <cLogS>  (362) 
-4.677

>  <H-Acceptors>  (362) 
6

>  <H-Donors>  (362) 
1

>  <Rotatable Bonds>  (362) 
2

>  <Polar Surface Area>  (362) 
78.13

$$$$
CDB0363
     RDKit          3D

 28 29  0  0  0  0  0  0  0  0999 V2000
   -0.7151   -2.3440    0.9091 C   0  0  0  0  0  0  0  0  0  0  0  0
    0.1274   -1.1939    0.4226 C   0  0  0  0  0  0  0  0  0  0  0  0
    1.5259   -1.3986    0.3816 C   0  0  0  0  0  0  0  0  0  0  0  0
    2.4096   -0.4082   -0.0505 C   0  0  0  0  0  0  0  0  0  0  0  0
    1.8962    0.8143   -0.4516 C   0  0  0  0  0  0  0  0  0  0  0  0
    0.5127    1.0224   -0.4131 C   0  0  0  0  0  0  0  0  0  0  0  0
   -0.4045    0.0507    0.0149 C   0  0  0  0  0  0  0  0  0  0  0  0
   -1.8383    0.4238   -0.0023 C   0  0  0  0  0  0  0  0  0  0  0  0
   -2.1946    1.6479   -0.4170 C   0  0  0  0  0  0  0  0  0  0  0  0
   -1.2318    2.6572   -0.8624 C   0  0  0  0  0  0  0  0  0  0  0  0
   -1.6118    3.7624   -1.2321 O   0  0  0  0  0  0  0  0  0  0  0  0
    0.0992    2.3013   -0.8429 O   0  0  0  0  0  0  0  0  0  0  0  0
   -2.7143   -0.5493    0.4229 O   0  0  0  0  0  0  0  0  0  0  0  0
   -4.1078   -0.2630    0.4338 C   0  0  0  0  0  0  0  0  0  0  0  0
    3.7286   -0.7643   -0.0300 O   0  0  0  0  0  0  0  0  0  0  0  0
    4.6658    0.2148   -0.4623 C   0  0  0  0  0  0  0  0  0  0  0  0
   -1.4044   -2.6743    0.1258 H   0  0  0  0  0  0  0  0  0  0  0  0
   -1.2654   -2.0626    1.8123 H   0  0  0  0  0  0  0  0  0  0  0  0
   -0.0997   -3.2115    1.1731 H   0  0  0  0  0  0  0  0  0  0  0  0
    1.9424   -2.3557    0.6945 H   0  0  0  0  0  0  0  0  0  0  0  0
    2.5314    1.6222   -0.7970 H   0  0  0  0  0  0  0  0  0  0  0  0
   -3.2213    1.9853   -0.4548 H   0  0  0  0  0  0  0  0  0  0  0  0
   -4.3320    0.5640    1.1152 H   0  0  0  0  0  0  0  0  0  0  0  0
   -4.6304   -1.1519    0.7993 H   0  0  0  0  0  0  0  0  0  0  0  0
   -4.4713   -0.0497   -0.5765 H   0  0  0  0  0  0  0  0  0  0  0  0
    4.6388    1.0989    0.1833 H   0  0  0  0  0  0  0  0  0  0  0  0
    5.6657   -0.2231   -0.3859 H   0  0  0  0  0  0  0  0  0  0  0  0
    4.4992    0.4846   -1.5104 H   0  0  0  0  0  0  0  0  0  0  0  0
  1  2  1  0
  2  3  2  0
  3  4  1  0
  4  5  2  0
  5  6  1  0
  6  7  2  0
  7  8  1  0
  8  9  2  0
  9 10  1  0
 10 11  2  0
 10 12  1  0
  8 13  1  0
 13 14  1  0
  4 15  1  0
 15 16  1  0
  7  2  1  0
 12  6  1  0
  1 17  1  0
  1 18  1  0
  1 19  1  0
  3 20  1  0
  5 21  1  0
  9 22  1  0
 14 23  1  0
 14 24  1  0
 14 25  1  0
 16 26  1  0
 16 27  1  0
 16 28  1  0
M  END
>  <Name>  (363) 
Siderin

>  <PubChem ID>  (363) 
185740

>  <CDB ID>  (363) 
CDB0363

>  <Smiles>  (363) 
CC1=CC(=CC2=C1C(=CC(=O)O2)OC)OC

>  <Chemical class>  (363) 
4,7-Dioxygenated Coumarins

>  <Natural source>  (363) 
Sideritis canariensis

>  <Molecular Formula>  (363) 
C12H12O4

>  <InChI-Key>  (363) 
LLTOPKQGFAAMKH-UHFFFAOYSA-N

>  <Total Molweight>  (363) 
220.223

>  <cLogP>  (363) 
1.817

>  <cLogS>  (363) 
-2.393

>  <H-Acceptors>  (363) 
4

>  <H-Donors>  (363) 
0

>  <Rotatable Bonds>  (363) 
2

>  <Polar Surface Area>  (363) 
44.76

$$$$
CDB0364
     RDKit          3D

 35 36  0  0  0  0  0  0  0  0999 V2000
    0.8986   -2.4729   -0.8908 C   0  0  0  0  0  0  0  0  0  0  0  0
    0.0202   -1.3475   -0.4059 C   0  0  0  0  0  0  0  0  0  0  0  0
   -1.3599   -1.6325   -0.2595 C   0  0  0  0  0  0  0  0  0  0  0  0
   -2.2741   -0.6555    0.1389 C   0  0  0  0  0  0  0  0  0  0  0  0
   -1.8030    0.6397    0.3569 C   0  0  0  0  0  0  0  0  0  0  0  0
   -0.4354    0.9209    0.2405 C   0  0  0  0  0  0  0  0  0  0  0  0
    0.5063   -0.0541   -0.1039 C   0  0  0  0  0  0  0  0  0  0  0  0
    1.9198    0.3746   -0.1202 C   0  0  0  0  0  0  0  0  0  0  0  0
    2.2593    1.6725   -0.0412 C   0  0  0  0  0  0  0  0  0  0  0  0
    1.2329    2.7078    0.2045 C   0  0  0  0  0  0  0  0  0  0  0  0
    1.5145    3.9010    0.2361 O   0  0  0  0  0  0  0  0  0  0  0  0
   -0.0518    2.2635    0.4458 O   0  0  0  0  0  0  0  0  0  0  0  0
    3.6616    2.1928   -0.1634 C   0  0  0  0  0  0  0  0  0  0  0  0
    2.8808   -0.6089   -0.2660 O   0  0  0  0  0  0  0  0  0  0  0  0
    3.3849   -1.0217    1.0085 C   0  0  0  0  0  0  0  0  0  0  0  0
   -2.6587    1.6364    0.7603 O   0  0  0  0  0  0  0  0  0  0  0  0
   -3.2671    2.2504   -0.3754 C   0  0  0  0  0  0  0  0  0  0  0  0
   -3.6173   -0.8564    0.3091 O   0  0  0  0  0  0  0  0  0  0  0  0
   -4.0900   -2.1958    0.2667 C   0  0  0  0  0  0  0  0  0  0  0  0
    1.5025   -2.8709   -0.0710 H   0  0  0  0  0  0  0  0  0  0  0  0
    0.3022   -3.3025   -1.2874 H   0  0  0  0  0  0  0  0  0  0  0  0
    1.5393   -2.1409   -1.7135 H   0  0  0  0  0  0  0  0  0  0  0  0
   -1.6996   -2.6414   -0.4779 H   0  0  0  0  0  0  0  0  0  0  0  0
    3.9828    2.6493    0.7788 H   0  0  0  0  0  0  0  0  0  0  0  0
    3.7225    2.9479   -0.9547 H   0  0  0  0  0  0  0  0  0  0  0  0
    4.3832    1.4102   -0.4167 H   0  0  0  0  0  0  0  0  0  0  0  0
    3.9309   -0.2095    1.4991 H   0  0  0  0  0  0  0  0  0  0  0  0
    2.5792   -1.3793    1.6588 H   0  0  0  0  0  0  0  0  0  0  0  0
    4.0817   -1.8480    0.8407 H   0  0  0  0  0  0  0  0  0  0  0  0
   -3.9066    1.5456   -0.9171 H   0  0  0  0  0  0  0  0  0  0  0  0
   -2.5150    2.6749   -1.0497 H   0  0  0  0  0  0  0  0  0  0  0  0
   -3.8974    3.0689   -0.0150 H   0  0  0  0  0  0  0  0  0  0  0  0
   -3.5810   -2.8219    1.0072 H   0  0  0  0  0  0  0  0  0  0  0  0
   -5.1549   -2.1826    0.5178 H   0  0  0  0  0  0  0  0  0  0  0  0
   -3.9914   -2.6138   -0.7404 H   0  0  0  0  0  0  0  0  0  0  0  0
  1  2  1  0
  2  3  1  0
  3  4  2  0
  4  5  1  0
  5  6  2  0
  6  7  1  0
  7  8  1  0
  8  9  2  0
  9 10  1  0
 10 11  2  0
 10 12  1  0
  9 13  1  0
  8 14  1  0
 14 15  1  0
  5 16  1  0
 16 17  1  0
  4 18  1  0
 18 19  1  0
  7  2  2  0
 12  6  1  0
  1 20  1  0
  1 21  1  0
  1 22  1  0
  3 23  1  0
 13 24  1  0
 13 25  1  0
 13 26  1  0
 15 27  1  0
 15 28  1  0
 15 29  1  0
 17 30  1  0
 17 31  1  0
 17 32  1  0
 19 33  1  0
 19 34  1  0
 19 35  1  0
M  END
>  <Name>  (364) 
Coumarsabin

>  <PubChem ID>  (364) 
338279

>  <CDB ID>  (364) 
CDB0364

>  <Smiles>  (364) 
CC1=CC(=C(C2=C1C(=C(C(=O)O2)C)OC)OC)OC

>  <Chemical class>  (364) 
4,7-Dioxygenated Coumarins

>  <Natural source>  (364) 
Juniperus sabina

>  <Molecular Formula>  (364) 
C14H16O5

>  <InChI-Key>  (364) 
PKKTXAMCHLIVDS-UHFFFAOYSA-N

>  <Total Molweight>  (364) 
264.276

>  <cLogP>  (364) 
2.1872

>  <cLogS>  (364) 
-2.535

>  <H-Acceptors>  (364) 
5

>  <H-Donors>  (364) 
0

>  <Rotatable Bonds>  (364) 
3

>  <Polar Surface Area>  (364) 
53.99

$$$$
CDB0365
     RDKit          3D

 49 51  0  0  0  0  0  0  0  0999 V2000
   -1.5507   -1.5820    2.7315 C   0  0  0  0  0  0  0  0  0  0  0  0
   -0.7945   -0.5053    1.9488 C   0  0  0  0  0  0  0  0  0  0  0  0
    0.1494   -0.9936    0.7935 C   0  0  0  0  0  0  0  0  0  0  0  0
   -0.8090   -0.8434   -0.3432 C   0  0  0  0  0  0  0  0  0  0  0  0
   -1.8299   -0.0788    0.0268 C   0  0  0  0  0  0  0  0  0  0  0  0
   -1.7958    0.3591    1.3415 O   0  0  0  0  0  0  0  0  0  0  0  0
   -2.9148    0.2893   -0.8725 C   0  0  0  0  0  0  0  0  0  0  0  0
   -2.8251   -0.2428   -2.1685 C   0  0  0  0  0  0  0  0  0  0  0  0
   -3.7794    0.0098   -3.1500 C   0  0  0  0  0  0  0  0  0  0  0  0
   -4.8571    0.8174   -2.8317 C   0  0  0  0  0  0  0  0  0  0  0  0
   -4.9852    1.3658   -1.5569 C   0  0  0  0  0  0  0  0  0  0  0  0
   -4.0181    1.1099   -0.5619 C   0  0  0  0  0  0  0  0  0  0  0  0
   -4.2132    1.7312    0.7948 C   0  0  0  0  0  0  0  0  0  0  0  0
   -5.7828    1.0553   -3.8035 O   0  0  0  0  0  0  0  0  0  0  0  0
   -1.7460   -1.0786   -2.5515 O   0  0  0  0  0  0  0  0  0  0  0  0
   -0.7145   -1.4157   -1.6821 C   0  0  0  0  0  0  0  0  0  0  0  0
    0.2094   -2.1436   -2.0210 O   0  0  0  0  0  0  0  0  0  0  0  0
    0.6584   -2.4236    1.0172 C   0  0  0  0  0  0  0  0  0  0  0  0
    1.3355    0.0119    0.6896 C   0  0  0  0  0  0  0  0  0  0  0  0
    2.2799   -0.1697   -0.5041 C   0  0  0  0  0  0  0  0  0  0  0  0
    3.4140    0.8187   -0.4389 C   0  0  0  0  0  0  0  0  0  0  0  0
    4.6648    0.6038    0.0185 C   0  0  0  0  0  0  0  0  0  0  0  0
    5.1541   -0.6994    0.5917 C   0  0  0  0  0  0  0  0  0  0  0  0
    5.6977    1.6996   -0.0212 C   0  0  0  0  0  0  0  0  0  0  0  0
    6.0718    2.0248    1.3086 O   0  0  0  0  0  0  0  0  0  0  0  0
   -2.2464   -1.1130    3.4365 H   0  0  0  0  0  0  0  0  0  0  0  0
   -2.1586   -2.2103    2.0717 H   0  0  0  0  0  0  0  0  0  0  0  0
   -0.8684   -2.2191    3.3013 H   0  0  0  0  0  0  0  0  0  0  0  0
   -0.2416    0.1055    2.6733 H   0  0  0  0  0  0  0  0  0  0  0  0
   -3.6826   -0.4164   -4.1432 H   0  0  0  0  0  0  0  0  0  0  0  0
   -5.8382    1.9981   -1.3233 H   0  0  0  0  0  0  0  0  0  0  0  0
   -3.3780    2.3963    1.0354 H   0  0  0  0  0  0  0  0  0  0  0  0
   -4.3122    0.9555    1.5606 H   0  0  0  0  0  0  0  0  0  0  0  0
   -5.1256    2.3367    0.8319 H   0  0  0  0  0  0  0  0  0  0  0  0
   -6.4765    1.6323   -3.4437 H   0  0  0  0  0  0  0  0  0  0  0  0
   -0.1607   -3.1510    1.0387 H   0  0  0  0  0  0  0  0  0  0  0  0
    1.2041   -2.4987    1.9645 H   0  0  0  0  0  0  0  0  0  0  0  0
    1.3385   -2.7516    0.2260 H   0  0  0  0  0  0  0  0  0  0  0  0
    1.9227   -0.0573    1.6167 H   0  0  0  0  0  0  0  0  0  0  0  0
    0.9444    1.0397    0.6635 H   0  0  0  0  0  0  0  0  0  0  0  0
    1.7437    0.0114   -1.4421 H   0  0  0  0  0  0  0  0  0  0  0  0
    2.6585   -1.1925   -0.5637 H   0  0  0  0  0  0  0  0  0  0  0  0
    3.1618    1.8097   -0.8160 H   0  0  0  0  0  0  0  0  0  0  0  0
    4.3721   -1.4577    0.6748 H   0  0  0  0  0  0  0  0  0  0  0  0
    5.5535   -0.5487    1.6000 H   0  0  0  0  0  0  0  0  0  0  0  0
    5.9510   -1.1102   -0.0367 H   0  0  0  0  0  0  0  0  0  0  0  0
    6.5848    1.3667   -0.5702 H   0  0  0  0  0  0  0  0  0  0  0  0
    5.3179    2.6067   -0.5032 H   0  0  0  0  0  0  0  0  0  0  0  0
    6.7171    2.7479    1.2456 H   0  0  0  0  0  0  0  0  0  0  0  0
  1  2  1  0
  2  3  1  0
  3  4  1  0
  4  5  2  0
  5  6  1  0
  5  7  1  0
  7  8  2  0
  8  9  1  0
  9 10  2  0
 10 11  1  0
 11 12  2  0
 12 13  1  0
 10 14  1  0
  8 15  1  0
 15 16  1  0
 16 17  2  0
  3 18  1  0
  3 19  1  0
 19 20  1  0
 20 21  1  0
 21 22  2  3
 22 23  1  0
 22 24  1  0
 24 25  1  0
  6  2  1  0
 16  4  1  0
 12  7  1  0
  1 26  1  0
  1 27  1  0
  1 28  1  0
  2 29  1  0
  9 30  1  0
 11 31  1  0
 13 32  1  0
 13 33  1  0
 13 34  1  0
 14 35  1  0
 18 36  1  0
 18 37  1  0
 18 38  1  0
 19 39  1  0
 19 40  1  0
 20 41  1  0
 20 42  1  0
 21 43  1  0
 23 44  1  0
 23 45  1  0
 23 46  1  0
 24 47  1  0
 24 48  1  0
 25 49  1  0
M  END
>  <Name>  (365) 
Nutanocoumarin

>  <PubChem ID>  (365) 
10617423

>  <CDB ID>  (365) 
CDB0365

>  <Smiles>  (365) 
CC1C(C2=C(O1)C3=C(C=C(C=C3C)O)OC2=O)(C)CCC=C(C)CO

>  <Chemical class>  (365) 
4,7-Dioxygenated Coumarins

>  <Natural source>  (365) 
Chaptalia nutans

>  <Molecular Formula>  (365) 
C20H24O5

>  <InChI-Key>  (365) 
RLMJKQCFPTZLDT-UHFFFAOYSA-N

>  <Total Molweight>  (365) 
344.406

>  <cLogP>  (365) 
3.7858

>  <cLogS>  (365) 
-3.503

>  <H-Acceptors>  (365) 
5

>  <H-Donors>  (365) 
2

>  <Rotatable Bonds>  (365) 
4

>  <Polar Surface Area>  (365) 
75.99

$$$$
CDB0366
     RDKit          3D

 41 44  0  0  0  0  0  0  0  0999 V2000
    3.7413    2.2295   -0.0670 C   0  0  0  0  0  0  0  0  0  0  0  0
    4.2569    0.8887    0.3789 C   0  0  0  0  0  0  0  0  0  0  0  0
    3.9801   -0.2920   -0.2102 C   0  0  0  0  0  0  0  0  0  0  0  0
    3.1416   -0.5448   -1.4337 C   0  0  0  0  0  0  0  0  0  0  0  0
    1.8559   -1.2693   -1.1034 C   0  0  0  0  0  0  0  0  0  0  0  0
    0.7110   -0.4954   -0.8201 C   0  0  0  0  0  0  0  0  0  0  0  0
   -0.4969   -1.1151   -0.5113 C   0  0  0  0  0  0  0  0  0  0  0  0
   -0.5702   -2.5128   -0.4782 C   0  0  0  0  0  0  0  0  0  0  0  0
    0.5422   -3.2994   -0.7416 C   0  0  0  0  0  0  0  0  0  0  0  0
    1.7513   -2.6718   -1.0435 C   0  0  0  0  0  0  0  0  0  0  0  0
    2.8056   -3.5111   -1.2699 O   0  0  0  0  0  0  0  0  0  0  0  0
   -1.7974   -3.1757   -0.1647 O   0  0  0  0  0  0  0  0  0  0  0  0
   -3.0045   -2.4859    0.1306 C   0  0  0  0  0  0  0  0  0  0  0  0
   -4.0373   -3.0912    0.3953 O   0  0  0  0  0  0  0  0  0  0  0  0
   -2.9152   -1.0454    0.0935 C   0  0  0  0  0  0  0  0  0  0  0  0
   -1.7250   -0.4389   -0.2108 C   0  0  0  0  0  0  0  0  0  0  0  0
   -1.8187    0.9086   -0.2022 O   0  0  0  0  0  0  0  0  0  0  0  0
   -3.1195    1.1850    0.1209 C   0  0  0  0  0  0  0  0  0  0  0  0
   -3.8412    0.0040    0.3143 C   0  0  0  0  0  0  0  0  0  0  0  0
   -5.2036    0.0979    0.6544 C   0  0  0  0  0  0  0  0  0  0  0  0
   -5.7819    1.3690    0.7858 C   0  0  0  0  0  0  0  0  0  0  0  0
   -5.0170    2.5177    0.5820 C   0  0  0  0  0  0  0  0  0  0  0  0
   -3.6656    2.4593    0.2441 C   0  0  0  0  0  0  0  0  0  0  0  0
   -5.5726    3.7599    0.7079 O   0  0  0  0  0  0  0  0  0  0  0  0
    5.1388    0.9465    1.6003 C   0  0  0  0  0  0  0  0  0  0  0  0
    3.2172    2.7231    0.7585 H   0  0  0  0  0  0  0  0  0  0  0  0
    4.5750    2.8684   -0.3763 H   0  0  0  0  0  0  0  0  0  0  0  0
    3.0394    2.1733   -0.9012 H   0  0  0  0  0  0  0  0  0  0  0  0
    4.4122   -1.1911    0.2293 H   0  0  0  0  0  0  0  0  0  0  0  0
    3.7278   -1.1284   -2.1538 H   0  0  0  0  0  0  0  0  0  0  0  0
    2.9070    0.3782   -1.9739 H   0  0  0  0  0  0  0  0  0  0  0  0
    0.7680    0.5915   -0.8409 H   0  0  0  0  0  0  0  0  0  0  0  0
    0.4782   -4.3824   -0.7067 H   0  0  0  0  0  0  0  0  0  0  0  0
    3.6308   -3.0042   -1.3064 H   0  0  0  0  0  0  0  0  0  0  0  0
   -5.7987   -0.7982    0.8131 H   0  0  0  0  0  0  0  0  0  0  0  0
   -6.8340    1.4377    1.0486 H   0  0  0  0  0  0  0  0  0  0  0  0
   -3.0728    3.3510    0.0861 H   0  0  0  0  0  0  0  0  0  0  0  0
   -6.5099    3.6627    0.9440 H   0  0  0  0  0  0  0  0  0  0  0  0
    6.0139    1.5751    1.4057 H   0  0  0  0  0  0  0  0  0  0  0  0
    4.5872    1.3689    2.4467 H   0  0  0  0  0  0  0  0  0  0  0  0
    5.5007   -0.0426    1.9002 H   0  0  0  0  0  0  0  0  0  0  0  0
  1  2  1  0
  2  3  2  3
  3  4  1  0
  4  5  1  0
  5  6  1  0
  6  7  2  0
  7  8  1  0
  8  9  2  0
  9 10  1  0
 10 11  1  0
  8 12  1  0
 12 13  1  0
 13 14  2  0
 13 15  1  0
 15 16  2  0
 16 17  1  0
 17 18  1  0
 18 19  1  0
 19 20  2  0
 20 21  1  0
 21 22  2  0
 22 23  1  0
 22 24  1  0
  2 25  1  0
 10  5  2  0
 16  7  1  0
 19 15  1  0
 23 18  2  0
  1 26  1  0
  1 27  1  0
  1 28  1  0
  3 29  1  0
  4 30  1  0
  4 31  1  0
  6 32  1  0
  9 33  1  0
 11 34  1  0
 20 35  1  0
 21 36  1  0
 23 37  1  0
 24 38  1  0
 25 39  1  0
 25 40  1  0
 25 41  1  0
M  END
>  <Name>  (366) 
Psoralidin

>  <PubChem ID>  (366) 
5281806

>  <CDB ID>  (366) 
CDB0366

>  <Smiles>  (366) 
CC(=CCC1=CC2=C(C=C1O)OC(=O)C3=C2OC4=C3C=CC(=C4)O)C

>  <Chemical class>  (366) 
4,7-Dioxygenated Coumarins

>  <Natural source>  (366) 
Psoralea corylifolia

>  <Molecular Formula>  (366) 
C20H16O5

>  <InChI-Key>  (366) 
YABIJLLNNFURIJ-UHFFFAOYSA-N

>  <Total Molweight>  (366) 
336.342

>  <cLogP>  (366) 
4.8632

>  <cLogS>  (366) 
-5.284

>  <H-Acceptors>  (366) 
5

>  <H-Donors>  (366) 
2

>  <Rotatable Bonds>  (366) 
2

>  <Polar Surface Area>  (366) 
79.9

$$$$
CDB0367
     RDKit          3D

 42 46  0  0  0  0  0  0  0  0999 V2000
    5.2916   -1.6327   -1.9056 C   0  0  0  0  0  0  0  0  0  0  0  0
    4.5674   -1.0940   -0.7107 C   0  0  0  0  0  0  0  0  0  0  0  0
    5.3011   -1.1501    0.5924 C   0  0  0  0  0  0  0  0  0  0  0  0
    3.1964   -1.5131   -0.6287 O   0  0  0  0  0  0  0  0  0  0  0  0
    3.4153   -0.1269   -0.9343 C   0  0  1  0  0  0  0  0  0  0  0  0
    2.9420    0.8350    0.1103 C   0  0  0  0  0  0  0  0  0  0  0  0
    1.5610    1.3492   -0.2314 C   0  0  0  0  0  0  0  0  0  0  0  0
    1.3773    2.5214   -0.9861 C   0  0  0  0  0  0  0  0  0  0  0  0
    2.4816    3.2078   -1.4078 O   0  0  0  0  0  0  0  0  0  0  0  0
    0.1035    2.9839   -1.3135 C   0  0  0  0  0  0  0  0  0  0  0  0
   -0.9941    2.2487   -0.8813 C   0  0  0  0  0  0  0  0  0  0  0  0
   -2.2941    2.7347   -1.2272 O   0  0  0  0  0  0  0  0  0  0  0  0
   -3.4998    2.0781   -0.8562 C   0  0  0  0  0  0  0  0  0  0  0  0
   -4.5936    2.5313   -1.1743 O   0  0  0  0  0  0  0  0  0  0  0  0
   -3.3298    0.8652   -0.0923 C   0  0  0  0  0  0  0  0  0  0  0  0
   -2.0718    0.4242    0.2249 C   0  0  0  0  0  0  0  0  0  0  0  0
   -2.0956   -0.7204    0.9417 O   0  0  0  0  0  0  0  0  0  0  0  0
   -3.4190   -1.0336    1.0924 C   0  0  0  0  0  0  0  0  0  0  0  0
   -4.2259   -0.0785    0.4684 C   0  0  0  0  0  0  0  0  0  0  0  0
   -5.6220   -0.2408    0.5238 C   0  0  0  0  0  0  0  0  0  0  0  0
   -6.1420   -1.3523    1.2010 C   0  0  0  0  0  0  0  0  0  0  0  0
   -5.2949   -2.2784    1.8071 C   0  0  0  0  0  0  0  0  0  0  0  0
   -5.8812   -3.3344    2.4465 O   0  0  0  0  0  0  0  0  0  0  0  0
   -3.9063   -2.1485    1.7723 C   0  0  0  0  0  0  0  0  0  0  0  0
   -0.8437    1.0696   -0.1382 C   0  0  0  0  0  0  0  0  0  0  0  0
    0.4322    0.6174    0.1832 C   0  0  0  0  0  0  0  0  0  0  0  0
    6.1960   -1.0460   -2.0956 H   0  0  0  0  0  0  0  0  0  0  0  0
    5.5853   -2.6744   -1.7402 H   0  0  0  0  0  0  0  0  0  0  0  0
    4.6728   -1.5997   -2.8088 H   0  0  0  0  0  0  0  0  0  0  0  0
    6.0627   -0.3648    0.6285 H   0  0  0  0  0  0  0  0  0  0  0  0
    4.6395   -1.0242    1.4545 H   0  0  0  0  0  0  0  0  0  0  0  0
    5.8030   -2.1164    0.7099 H   0  0  0  0  0  0  0  0  0  0  0  0
    3.2391    0.2191   -1.9461 H   0  0  0  0  0  0  0  0  0  0  0  0
    3.6509    1.6667    0.1931 H   0  0  0  0  0  0  0  0  0  0  0  0
    2.9075    0.3737    1.1046 H   0  0  0  0  0  0  0  0  0  0  0  0
    2.1978    3.9936   -1.9045 H   0  0  0  0  0  0  0  0  0  0  0  0
   -0.0460    3.8881   -1.8930 H   0  0  0  0  0  0  0  0  0  0  0  0
   -6.2879    0.4776    0.0525 H   0  0  0  0  0  0  0  0  0  0  0  0
   -7.2192   -1.4941    1.2537 H   0  0  0  0  0  0  0  0  0  0  0  0
   -5.1848   -3.9025    2.8160 H   0  0  0  0  0  0  0  0  0  0  0  0
   -3.2310   -2.8548    2.2354 H   0  0  0  0  0  0  0  0  0  0  0  0
    0.5587   -0.3046    0.7481 H   0  0  0  0  0  0  0  0  0  0  0  0
  1  2  1  0
  2  3  1  0
  2  4  1  0
  4  5  1  0
  5  6  1  0
  6  7  1  0
  7  8  2  0
  8  9  1  0
  8 10  1  0
 10 11  2  0
 11 12  1  0
 12 13  1  0
 13 14  2  0
 13 15  1  0
 15 16  2  0
 16 17  1  0
 17 18  1  0
 18 19  1  0
 19 20  2  0
 20 21  1  0
 21 22  2  0
 22 23  1  0
 22 24  1  0
 16 25  1  0
 25 26  2  0
  5  2  1  0
 26  7  1  0
 25 11  1  0
 19 15  1  0
 24 18  2  0
  1 27  1  0
  1 28  1  0
  1 29  1  0
  3 30  1  0
  3 31  1  0
  3 32  1  0
  5 33  1  6
  6 34  1  0
  6 35  1  0
  9 36  1  0
 10 37  1  0
 20 38  1  0
 21 39  1  0
 23 40  1  0
 24 41  1  0
 26 42  1  0
M  END
>  <Name>  (367) 
Psoralidin Oxide

>  <PubChem ID>  (367) 
44257529

>  <CDB ID>  (367) 
CDB0367

>  <Smiles>  (367) 
CC1(C)O[C@H]1CC1=C(O)C=C2OC(=O)C3=C(OC4=C3C=CC(O)=C4)C2=C1

>  <Chemical class>  (367) 
4,7-Dioxygenated Coumarins

>  <Natural source>  (367) 
Psoralea corylifolia

>  <Molecular Formula>  (367) 
C20H16O6

>  <InChI-Key>  (367) 
DDNQJNCZXTTZFX-INIZCTEOSA-N

>  <Total Molweight>  (367) 
352.341

>  <cLogP>  (367) 
3.4324

>  <cLogS>  (367) 
-5.18

>  <H-Acceptors>  (367) 
6

>  <H-Donors>  (367) 
2

>  <Rotatable Bonds>  (367) 
2

>  <Polar Surface Area>  (367) 
92.43

$$$$
CDB0368
     RDKit          3D

 41 45  0  0  0  0  0  0  0  0999 V2000
   -4.7533    1.1821   -0.6691 C   0  0  0  0  0  0  0  0  0  0  0  0
   -4.4803   -0.1097    0.1164 C   0  0  0  0  0  0  0  0  0  0  0  0
   -4.0411   -1.2731   -0.7846 C   0  0  0  0  0  0  0  0  0  0  0  0
   -2.6943   -0.9899   -1.4313 C   0  0  0  0  0  0  0  0  0  0  0  0
   -1.7290   -0.4532   -0.4151 C   0  0  0  0  0  0  0  0  0  0  0  0
   -0.3508   -0.4699   -0.6914 C   0  0  0  0  0  0  0  0  0  0  0  0
    0.5463    0.0304    0.2471 C   0  0  0  0  0  0  0  0  0  0  0  0
    0.0669    0.5508    1.4566 C   0  0  0  0  0  0  0  0  0  0  0  0
   -1.2919    0.5858    1.7413 C   0  0  0  0  0  0  0  0  0  0  0  0
   -2.1902    0.0919    0.7942 C   0  0  0  0  0  0  0  0  0  0  0  0
   -3.5109    0.1640    1.1443 O   0  0  0  0  0  0  0  0  0  0  0  0
    0.9669    1.0686    2.4397 O   0  0  0  0  0  0  0  0  0  0  0  0
    2.3778    1.0954    2.2706 C   0  0  0  0  0  0  0  0  0  0  0  0
    3.1161    1.5484    3.1382 O   0  0  0  0  0  0  0  0  0  0  0  0
    2.8583    0.5575    1.0199 C   0  0  0  0  0  0  0  0  0  0  0  0
    1.9718    0.0680    0.0971 C   0  0  0  0  0  0  0  0  0  0  0  0
    2.5887   -0.3946   -1.0120 O   0  0  0  0  0  0  0  0  0  0  0  0
    3.9261   -0.1971   -0.7987 C   0  0  0  0  0  0  0  0  0  0  0  0
    4.1446    0.3918    0.4497 C   0  0  0  0  0  0  0  0  0  0  0  0
    5.4684    0.6688    0.8386 C   0  0  0  0  0  0  0  0  0  0  0  0
    6.5133    0.3442   -0.0390 C   0  0  0  0  0  0  0  0  0  0  0  0
    6.2414   -0.2429   -1.2749 C   0  0  0  0  0  0  0  0  0  0  0  0
    4.9418   -0.5302   -1.6901 C   0  0  0  0  0  0  0  0  0  0  0  0
    7.2535   -0.5623   -2.1358 O   0  0  0  0  0  0  0  0  0  0  0  0
   -5.7673   -0.5129    0.8515 C   0  0  0  0  0  0  0  0  0  0  0  0
   -5.5065    1.0247   -1.4480 H   0  0  0  0  0  0  0  0  0  0  0  0
   -3.8471    1.5757   -1.1407 H   0  0  0  0  0  0  0  0  0  0  0  0
   -5.1093    1.9734    0.0011 H   0  0  0  0  0  0  0  0  0  0  0  0
   -4.7900   -1.4838   -1.5572 H   0  0  0  0  0  0  0  0  0  0  0  0
   -3.9425   -2.1825   -0.1752 H   0  0  0  0  0  0  0  0  0  0  0  0
   -2.8031   -0.2601   -2.2418 H   0  0  0  0  0  0  0  0  0  0  0  0
   -2.3069   -1.9167   -1.8706 H   0  0  0  0  0  0  0  0  0  0  0  0
    0.0153   -0.8765   -1.6318 H   0  0  0  0  0  0  0  0  0  0  0  0
   -1.6525    0.9946    2.6798 H   0  0  0  0  0  0  0  0  0  0  0  0
    5.6792    1.1265    1.8023 H   0  0  0  0  0  0  0  0  0  0  0  0
    7.5342    0.5595    0.2646 H   0  0  0  0  0  0  0  0  0  0  0  0
    4.7315   -0.9857   -2.6492 H   0  0  0  0  0  0  0  0  0  0  0  0
    8.1009   -0.3141   -1.7309 H   0  0  0  0  0  0  0  0  0  0  0  0
   -6.0941    0.2809    1.5333 H   0  0  0  0  0  0  0  0  0  0  0  0
   -5.5996   -1.4005    1.4726 H   0  0  0  0  0  0  0  0  0  0  0  0
   -6.5824   -0.7274    0.1525 H   0  0  0  0  0  0  0  0  0  0  0  0
  1  2  1  0
  2  3  1  0
  3  4  1  0
  4  5  1  0
  5  6  1  0
  6  7  2  0
  7  8  1  0
  8  9  2  0
  9 10  1  0
 10 11  1  0
  8 12  1  0
 12 13  1  0
 13 14  2  0
 13 15  1  0
 15 16  2  0
 16 17  1  0
 17 18  1  0
 18 19  1  0
 19 20  2  0
 20 21  1  0
 21 22  2  0
 22 23  1  0
 22 24  1  0
  2 25  1  0
 11  2  1  0
 10  5  2  0
 16  7  1  0
 19 15  1  0
 23 18  2  0
  1 26  1  0
  1 27  1  0
  1 28  1  0
  3 29  1  0
  3 30  1  0
  4 31  1  0
  4 32  1  0
  6 33  1  0
  9 34  1  0
 20 35  1  0
 21 36  1  0
 23 37  1  0
 24 38  1  0
 25 39  1  0
 25 40  1  0
 25 41  1  0
M  END
>  <Name>  (368) 
Isopsoralidin

>  <PubChem ID>  (368) 
12304285

>  <CDB ID>  (368) 
CDB0368

>  <Smiles>  (368) 
CC1(CCC2=CC3=C(C=C2O1)OC(=O)C4=C3OC5=C4C=CC(=C5)O)C

>  <Chemical class>  (368) 
4,7-Dioxygenated Coumarins

>  <Natural source>  (368) 
Psoralea corylifolia

>  <Molecular Formula>  (368) 
C20H16O5

>  <InChI-Key>  (368) 
JWCDJOWFOVBBCP-UHFFFAOYSA-N

>  <Total Molweight>  (368) 
336.342

>  <cLogP>  (368) 
4.3769

>  <cLogS>  (368) 
-5.765

>  <H-Acceptors>  (368) 
5

>  <H-Donors>  (368) 
1

>  <Rotatable Bonds>  (368) 
0

>  <Polar Surface Area>  (368) 
68.9

$$$$
CDB0369
     RDKit          3D

 54 57  0  0  0  0  0  0  0  0999 V2000
    7.0059    0.8127   -1.7672 C   0  0  0  0  0  0  0  0  0  0  0  0
    6.4016    0.1846   -0.5390 C   0  0  0  0  0  0  0  0  0  0  0  0
    5.0700    0.0028   -0.4446 C   0  0  0  0  0  0  0  0  0  0  0  0
    4.3080   -0.6319    0.6878 C   0  0  0  0  0  0  0  0  0  0  0  0
    3.7425    0.3718    1.7019 C   0  0  0  0  0  0  0  0  0  0  0  0
    2.6059    1.2324    1.1841 C   0  0  0  0  0  0  0  0  0  0  0  0
    1.3024    0.8901    1.2514 C   0  0  0  0  0  0  0  0  0  0  0  0
    0.7116   -0.3890    1.7894 C   0  0  0  0  0  0  0  0  0  0  0  0
   -0.3363   -0.9782    0.8661 C   0  0  0  0  0  0  0  0  0  0  0  0
   -1.6377   -0.4367    0.8695 C   0  0  0  0  0  0  0  0  0  0  0  0
   -2.6071   -0.9485    0.0126 C   0  0  0  0  0  0  0  0  0  0  0  0
   -2.2813   -2.0023   -0.8515 C   0  0  0  0  0  0  0  0  0  0  0  0
   -1.0070   -2.5557   -0.8767 C   0  0  0  0  0  0  0  0  0  0  0  0
   -0.0422   -2.0353   -0.0138 C   0  0  0  0  0  0  0  0  0  0  0  0
    1.2166   -2.5663   -0.0102 O   0  0  0  0  0  0  0  0  0  0  0  0
   -3.2586   -2.5470   -1.7426 O   0  0  0  0  0  0  0  0  0  0  0  0
   -4.5971   -2.0738   -1.8195 C   0  0  0  0  0  0  0  0  0  0  0  0
   -5.4037   -2.5694   -2.5986 O   0  0  0  0  0  0  0  0  0  0  0  0
   -4.9183   -0.9876   -0.9249 C   0  0  0  0  0  0  0  0  0  0  0  0
   -3.9614   -0.4869   -0.0817 C   0  0  0  0  0  0  0  0  0  0  0  0
   -4.4298    0.5226    0.6836 O   0  0  0  0  0  0  0  0  0  0  0  0
   -5.7401    0.6817    0.3221 C   0  0  0  0  0  0  0  0  0  0  0  0
   -6.0912   -0.2335   -0.6740 C   0  0  0  0  0  0  0  0  0  0  0  0
   -7.4084   -0.2141   -1.1693 C   0  0  0  0  0  0  0  0  0  0  0  0
   -8.3142    0.7200   -0.6455 C   0  0  0  0  0  0  0  0  0  0  0  0
   -7.9131    1.6125    0.3488 C   0  0  0  0  0  0  0  0  0  0  0  0
   -6.6163    1.6193    0.8608 C   0  0  0  0  0  0  0  0  0  0  0  0
   -8.7893    2.5257    0.8646 O   0  0  0  0  0  0  0  0  0  0  0  0
    3.0105    2.5757    0.6310 C   0  0  0  0  0  0  0  0  0  0  0  0
    7.3980   -0.1839    0.5249 C   0  0  0  0  0  0  0  0  0  0  0  0
    7.5307    1.7363   -1.5021 H   0  0  0  0  0  0  0  0  0  0  0  0
    7.7216    0.1256   -2.2303 H   0  0  0  0  0  0  0  0  0  0  0  0
    6.2513    1.0637   -2.5201 H   0  0  0  0  0  0  0  0  0  0  0  0
    4.4392    0.3231   -1.2738 H   0  0  0  0  0  0  0  0  0  0  0  0
    3.4976   -1.2309    0.2579 H   0  0  0  0  0  0  0  0  0  0  0  0
    4.9433   -1.3499    1.2184 H   0  0  0  0  0  0  0  0  0  0  0  0
    3.4014   -0.1848    2.5839 H   0  0  0  0  0  0  0  0  0  0  0  0
    4.5479    1.0166    2.0779 H   0  0  0  0  0  0  0  0  0  0  0  0
    0.5675    1.6066    0.8849 H   0  0  0  0  0  0  0  0  0  0  0  0
    1.4774   -1.1393    2.0084 H   0  0  0  0  0  0  0  0  0  0  0  0
    0.2362   -0.1696    2.7544 H   0  0  0  0  0  0  0  0  0  0  0  0
   -1.8850    0.3844    1.5397 H   0  0  0  0  0  0  0  0  0  0  0  0
   -0.7859   -3.3728   -1.5544 H   0  0  0  0  0  0  0  0  0  0  0  0
    1.2854   -3.2369   -0.7095 H   0  0  0  0  0  0  0  0  0  0  0  0
   -7.7201   -0.9100   -1.9444 H   0  0  0  0  0  0  0  0  0  0  0  0
   -9.3304    0.7324   -1.0301 H   0  0  0  0  0  0  0  0  0  0  0  0
   -6.3057    2.3121    1.6323 H   0  0  0  0  0  0  0  0  0  0  0  0
   -9.6501    2.4178    0.4276 H   0  0  0  0  0  0  0  0  0  0  0  0
    3.6422    2.4608   -0.2537 H   0  0  0  0  0  0  0  0  0  0  0  0
    2.1452    3.1801    0.3380 H   0  0  0  0  0  0  0  0  0  0  0  0
    3.5661    3.1442    1.3842 H   0  0  0  0  0  0  0  0  0  0  0  0
    6.9332   -0.5245    1.4533 H   0  0  0  0  0  0  0  0  0  0  0  0
    8.0156    0.6845    0.7785 H   0  0  0  0  0  0  0  0  0  0  0  0
    8.0558   -0.9813    0.1647 H   0  0  0  0  0  0  0  0  0  0  0  0
  1  2  1  0
  2  3  2  3
  3  4  1  0
  4  5  1  0
  5  6  1  0
  6  7  2  3
  7  8  1  0
  8  9  1  0
  9 10  1  0
 10 11  2  0
 11 12  1  0
 12 13  2  0
 13 14  1  0
 14 15  1  0
 12 16  1  0
 16 17  1  0
 17 18  2  0
 17 19  1  0
 19 20  2  0
 20 21  1  0
 21 22  1  0
 22 23  1  0
 23 24  2  0
 24 25  1  0
 25 26  2  0
 26 27  1  0
 26 28  1  0
  6 29  1  0
  2 30  1  0
 14  9  2  0
 20 11  1  0
 23 19  1  0
 27 22  2  0
  1 31  1  0
  1 32  1  0
  1 33  1  0
  3 34  1  0
  4 35  1  0
  4 36  1  0
  5 37  1  0
  5 38  1  0
  7 39  1  0
  8 40  1  0
  8 41  1  0
 10 42  1  0
 13 43  1  0
 15 44  1  0
 24 45  1  0
 25 46  1  0
 27 47  1  0
 28 48  1  0
 29 49  1  0
 29 50  1  0
 29 51  1  0
 30 52  1  0
 30 53  1  0
 30 54  1  0
M  END
>  <Name>  (369) 
Puerarol

>  <PubChem ID>  (369) 
44257531

>  <CDB ID>  (369) 
CDB0369

>  <Smiles>  (369) 
CC(=CCCC(=CCC1=CC2=C(C=C1O)OC(=O)C3=C2OC4=C3C=CC(=C4)O)C)C

>  <Chemical class>  (369) 
4,7-Dioxygenated Coumarins

>  <Natural source>  (369) 
Pueraria labata

>  <Molecular Formula>  (369) 
C25H24O5

>  <InChI-Key>  (369) 
CGMGCGYLRFAMQF-UHFFFAOYSA-N

>  <Total Molweight>  (369) 
404.461

>  <cLogP>  (369) 
7.035

>  <cLogS>  (369) 
-6.26

>  <H-Acceptors>  (369) 
5

>  <H-Donors>  (369) 
2

>  <Rotatable Bonds>  (369) 
5

>  <Polar Surface Area>  (369) 
79.9

$$$$
CDB0370
     RDKit          3D

 32 37  0  0  0  0  0  0  0  0999 V2000
    5.9999    0.1368   -1.5450 C   0  0  0  0  0  0  0  0  0  0  0  0
    5.5671    0.2302   -0.1730 O   0  0  0  0  0  0  0  0  0  0  0  0
    4.2145    0.1721   -0.3211 C   0  0  0  0  0  0  0  0  0  0  0  0
    3.8378    0.0551   -1.6410 C   0  0  0  0  0  0  0  0  0  0  0  0
    4.9095    0.0255   -2.4823 O   0  0  0  0  0  0  0  0  0  0  0  0
    2.5174   -0.0220   -2.0437 C   0  0  0  0  0  0  0  0  0  0  0  0
    1.5968    0.0291   -0.9961 C   0  0  0  0  0  0  0  0  0  0  0  0
    1.9397    0.1479    0.3607 C   0  0  0  0  0  0  0  0  0  0  0  0
    3.3011    0.2229    0.7198 C   0  0  0  0  0  0  0  0  0  0  0  0
    0.7052    0.1606    1.0590 C   0  0  0  0  0  0  0  0  0  0  0  0
   -0.2716    0.0518    0.1045 C   0  0  0  0  0  0  0  0  0  0  0  0
    0.2377   -0.0292   -1.1438 O   0  0  0  0  0  0  0  0  0  0  0  0
   -1.6860    0.0225    0.3486 C   0  0  0  0  0  0  0  0  0  0  0  0
   -2.0527    0.1167    1.7027 C   0  0  0  0  0  0  0  0  0  0  0  0
   -3.3803    0.1046    2.1273 C   0  0  0  0  0  0  0  0  0  0  0  0
   -4.3217   -0.0082    1.1070 C   0  0  0  0  0  0  0  0  0  0  0  0
   -4.0136   -0.1045   -0.2489 C   0  0  0  0  0  0  0  0  0  0  0  0
   -2.6621   -0.0895   -0.6468 C   0  0  0  0  0  0  0  0  0  0  0  0
   -5.2622   -0.2003   -0.9197 C   0  0  0  0  0  0  0  0  0  0  0  0
   -6.2330   -0.1568    0.0543 C   0  0  0  0  0  0  0  0  0  0  0  0
   -5.6715   -0.0405    1.2854 O   0  0  0  0  0  0  0  0  0  0  0  0
   -1.0488    0.2315    2.7211 O   0  0  0  0  0  0  0  0  0  0  0  0
    0.3463    0.2583    2.4538 C   0  0  0  0  0  0  0  0  0  0  0  0
    1.1676    0.3578    3.3580 O   0  0  0  0  0  0  0  0  0  0  0  0
    6.6443   -0.7435   -1.6506 H   0  0  0  0  0  0  0  0  0  0  0  0
    6.5835    1.0315   -1.7906 H   0  0  0  0  0  0  0  0  0  0  0  0
    2.2174   -0.1139   -3.0777 H   0  0  0  0  0  0  0  0  0  0  0  0
    3.6215    0.3153    1.7520 H   0  0  0  0  0  0  0  0  0  0  0  0
   -3.6682    0.1767    3.1676 H   0  0  0  0  0  0  0  0  0  0  0  0
   -2.3895   -0.1629   -1.6955 H   0  0  0  0  0  0  0  0  0  0  0  0
   -5.4327   -0.2900   -1.9831 H   0  0  0  0  0  0  0  0  0  0  0  0
   -7.3135   -0.1953    0.0370 H   0  0  0  0  0  0  0  0  0  0  0  0
  1  2  1  0
  2  3  1  0
  3  4  2  0
  4  5  1  0
  4  6  1  0
  6  7  2  0
  7  8  1  0
  8  9  2  0
  8 10  1  0
 10 11  2  0
 11 12  1  0
 11 13  1  0
 13 14  2  0
 14 15  1  0
 15 16  2  0
 16 17  1  0
 17 18  2  0
 17 19  1  0
 19 20  2  0
 20 21  1  0
 14 22  1  0
 22 23  1  0
 23 24  2  0
  5  1  1  0
  9  3  1  0
 12  7  1  0
 23 10  1  0
 18 13  1  0
 21 16  1  0
  1 25  1  0
  1 26  1  0
  6 27  1  0
  9 28  1  0
 15 29  1  0
 18 30  1  0
 19 31  1  0
 20 32  1  0
M  END
>  <Name>  (370) 
Erosnin

>  <PubChem ID>  (370) 
5317189

>  <CDB ID>  (370) 
CDB0370

>  <Smiles>  (370) 
C1OC2=C(O1)C=C3C(=C2)C4=C(O3)C5=C(C=C6C(=C5)C=CO6)OC4=O

>  <Chemical class>  (370) 
4,7-Dioxygenated Coumarins

>  <Natural source>  (370) 
Pachyrrhizus eratus

>  <Molecular Formula>  (370) 
C18H8O6

>  <InChI-Key>  (370) 
YQXNKHVPEJJBTJ-UHFFFAOYSA-N

>  <Total Molweight>  (370) 
320.256

>  <cLogP>  (370) 
4.0951

>  <cLogS>  (370) 
-6.807

>  <H-Acceptors>  (370) 
6

>  <H-Donors>  (370) 
0

>  <Rotatable Bonds>  (370) 
0

>  <Polar Surface Area>  (370) 
71.04

$$$$
CDB0371
     RDKit          3D

 43 47  0  0  0  0  0  0  0  0999 V2000
   -4.5854    0.5888   -1.1732 C   0  0  0  0  0  0  0  0  0  0  0  0
   -4.3093    0.2069    0.2911 C   0  0  0  0  0  0  0  0  0  0  0  0
   -3.7466    1.3591    1.1549 C   0  0  0  0  0  0  0  0  0  0  0  0
   -2.3280    1.7460    0.7153 C   0  0  0  0  0  0  0  0  0  0  0  0
   -1.4954    0.5383    0.3945 C   0  0  0  0  0  0  0  0  0  0  0  0
   -2.0957   -0.7178    0.2151 C   0  0  0  0  0  0  0  0  0  0  0  0
   -3.4405   -0.9445    0.3122 O   0  0  0  0  0  0  0  0  0  0  0  0
   -1.3199   -1.8468   -0.0552 C   0  0  0  0  0  0  0  0  0  0  0  0
    0.0571   -1.7043   -0.1652 C   0  0  0  0  0  0  0  0  0  0  0  0
    0.6758   -0.4582   -0.0040 C   0  0  0  0  0  0  0  0  0  0  0  0
   -0.0977    0.6636    0.2777 C   0  0  0  0  0  0  0  0  0  0  0  0
    2.1021   -0.4698   -0.1475 C   0  0  0  0  0  0  0  0  0  0  0  0
    2.8680   -1.5728   -0.4190 C   0  0  0  0  0  0  0  0  0  0  0  0
    4.2070   -1.1126   -0.4711 C   0  0  0  0  0  0  0  0  0  0  0  0
    4.1393    0.2611   -0.2225 C   0  0  0  0  0  0  0  0  0  0  0  0
    2.8428    0.6526   -0.0246 O   0  0  0  0  0  0  0  0  0  0  0  0
    5.2489    1.1003   -0.1854 C   0  0  0  0  0  0  0  0  0  0  0  0
    6.4839    0.4954   -0.4150 C   0  0  0  0  0  0  0  0  0  0  0  0
    6.6059   -0.8711   -0.6678 C   0  0  0  0  0  0  0  0  0  0  0  0
    5.4690   -1.6921   -0.6991 C   0  0  0  0  0  0  0  0  0  0  0  0
    7.5860    1.3025   -0.3828 O   0  0  0  0  0  0  0  0  0  0  0  0
    2.2438   -2.8640   -0.5857 C   0  0  0  0  0  0  0  0  0  0  0  0
    2.8688   -3.8899   -0.8295 O   0  0  0  0  0  0  0  0  0  0  0  0
    0.8285   -2.8740   -0.4488 O   0  0  0  0  0  0  0  0  0  0  0  0
   -2.4143    2.6321   -0.4112 O   0  0  0  0  0  0  0  0  0  0  0  0
   -4.5968    2.5132    1.1243 O   0  0  0  0  0  0  0  0  0  0  0  0
   -5.6389   -0.2700    0.9039 C   0  0  0  0  0  0  0  0  0  0  0  0
   -5.2628    1.4450   -1.2508 H   0  0  0  0  0  0  0  0  0  0  0  0
   -5.0378   -0.2534   -1.7106 H   0  0  0  0  0  0  0  0  0  0  0  0
   -3.6657    0.8216   -1.7181 H   0  0  0  0  0  0  0  0  0  0  0  0
   -3.6929    1.0146    2.1964 H   0  0  0  0  0  0  0  0  0  0  0  0
   -1.8582    2.3215    1.5219 H   0  0  0  0  0  0  0  0  0  0  0  0
   -1.7882   -2.8185   -0.1816 H   0  0  0  0  0  0  0  0  0  0  0  0
    0.3809    1.6317    0.4171 H   0  0  0  0  0  0  0  0  0  0  0  0
    5.1557    2.1608    0.0109 H   0  0  0  0  0  0  0  0  0  0  0  0
    7.5788   -1.3218   -0.8442 H   0  0  0  0  0  0  0  0  0  0  0  0
    5.5634   -2.7574   -0.8961 H   0  0  0  0  0  0  0  0  0  0  0  0
    8.3763    0.7640   -0.5539 H   0  0  0  0  0  0  0  0  0  0  0  0
   -1.7308    2.3729   -1.0540 H   0  0  0  0  0  0  0  0  0  0  0  0
   -4.2518    3.0683    0.3934 H   0  0  0  0  0  0  0  0  0  0  0  0
   -6.0336   -1.1348    0.3575 H   0  0  0  0  0  0  0  0  0  0  0  0
   -5.4926   -0.6042    1.9376 H   0  0  0  0  0  0  0  0  0  0  0  0
   -6.3993    0.5177    0.8980 H   0  0  0  0  0  0  0  0  0  0  0  0
  1  2  1  0
  2  3  1  0
  3  4  1  0
  4  5  1  0
  5  6  2  0
  6  7  1  0
  6  8  1  0
  8  9  2  0
  9 10  1  0
 10 11  2  0
 10 12  1  0
 12 13  2  0
 13 14  1  0
 14 15  1  0
 15 16  1  0
 15 17  2  0
 17 18  1  0
 18 19  2  0
 19 20  1  0
 18 21  1  0
 13 22  1  0
 22 23  2  0
 22 24  1  0
  4 25  1  0
  3 26  1  0
  2 27  1  0
  7  2  1  0
 11  5  1  0
 24  9  1  0
 16 12  1  0
 20 14  2  0
  1 28  1  0
  1 29  1  0
  1 30  1  0
  3 31  1  0
  4 32  1  0
  8 33  1  0
 11 34  1  0
 17 35  1  0
 19 36  1  0
 20 37  1  0
 21 38  1  0
 25 39  1  0
 26 40  1  0
 27 41  1  0
 27 42  1  0
 27 43  1  0
M  END
>  <Name>  (371) 
Corylidin

>  <PubChem ID>  (371) 
5316096

>  <CDB ID>  (371) 
CDB0371

>  <Smiles>  (371) 
CC1(C(C(C2=C(O1)C=C3C(=C2)C4=C(C5=C(O4)C=C(C=C5)O)C(=O)O3)O)O)C

>  <Chemical class>  (371) 
4,7-Dioxygenated Coumarins

>  <Natural source>  (371) 
Psoralea corylifolia

>  <Molecular Formula>  (371) 
C20H16O7

>  <InChI-Key>  (371) 
QYJUEWQOEZPDIA-UHFFFAOYSA-N

>  <Total Molweight>  (371) 
368.34

>  <cLogP>  (371) 
2.7988

>  <cLogS>  (371) 
-4.818

>  <H-Acceptors>  (371) 
7

>  <H-Donors>  (371) 
3

>  <Rotatable Bonds>  (371) 
0

>  <Polar Surface Area>  (371) 
109.36

$$$$
CDB0372
     RDKit          3D

 41 44  0  0  0  0  0  0  0  0999 V2000
   -5.1945    1.4550   -0.7173 C   0  0  0  0  0  0  0  0  0  0  0  0
   -4.4796    0.9846    0.5227 C   0  0  0  0  0  0  0  0  0  0  0  0
   -3.1572    1.1981    0.6732 C   0  0  0  0  0  0  0  0  0  0  0  0
   -2.2754    0.8222    1.8363 C   0  0  0  0  0  0  0  0  0  0  0  0
   -1.3028   -0.2807    1.4917 C   0  0  0  0  0  0  0  0  0  0  0  0
   -1.5607   -1.6196    1.8179 C   0  0  0  0  0  0  0  0  0  0  0  0
   -0.6690   -2.6457    1.4773 C   0  0  0  0  0  0  0  0  0  0  0  0
    0.5118   -2.3530    0.7914 C   0  0  0  0  0  0  0  0  0  0  0  0
    0.7912   -1.0346    0.4509 C   0  0  0  0  0  0  0  0  0  0  0  0
   -0.1128   -0.0149    0.8003 C   0  0  0  0  0  0  0  0  0  0  0  0
    0.1794    1.3460    0.4424 O   0  0  0  0  0  0  0  0  0  0  0  0
    1.3429    1.7563   -0.2605 C   0  0  0  0  0  0  0  0  0  0  0  0
    1.5372    2.9333   -0.5421 O   0  0  0  0  0  0  0  0  0  0  0  0
    2.2538    0.6926   -0.6049 C   0  0  0  0  0  0  0  0  0  0  0  0
    1.9621   -0.5992   -0.2553 C   0  0  0  0  0  0  0  0  0  0  0  0
    2.9196   -1.4656   -0.6543 O   0  0  0  0  0  0  0  0  0  0  0  0
    3.8657   -0.7049   -1.2859 C   0  0  0  0  0  0  0  0  0  0  0  0
    3.4976    0.6430   -1.2813 C   0  0  0  0  0  0  0  0  0  0  0  0
    4.3571    1.5750   -1.8903 C   0  0  0  0  0  0  0  0  0  0  0  0
    5.5439    1.1117   -2.4746 C   0  0  0  0  0  0  0  0  0  0  0  0
    5.8669   -0.2439   -2.4533 C   0  0  0  0  0  0  0  0  0  0  0  0
    5.0382   -1.1955   -1.8582 C   0  0  0  0  0  0  0  0  0  0  0  0
    7.0420   -0.6138   -3.0448 O   0  0  0  0  0  0  0  0  0  0  0  0
   -2.7100   -1.9272    2.4919 O   0  0  0  0  0  0  0  0  0  0  0  0
   -5.3638    0.2779    1.5122 C   0  0  0  0  0  0  0  0  0  0  0  0
   -5.6421    0.6047   -1.2423 H   0  0  0  0  0  0  0  0  0  0  0  0
   -4.5232    1.9619   -1.4185 H   0  0  0  0  0  0  0  0  0  0  0  0
   -5.9901    2.1588   -0.4518 H   0  0  0  0  0  0  0  0  0  0  0  0
   -2.6300    1.7256   -0.1220 H   0  0  0  0  0  0  0  0  0  0  0  0
   -1.7147    1.7138    2.1464 H   0  0  0  0  0  0  0  0  0  0  0  0
   -2.8532    0.5558    2.7263 H   0  0  0  0  0  0  0  0  0  0  0  0
   -0.8798   -3.6787    1.7400 H   0  0  0  0  0  0  0  0  0  0  0  0
    1.2002   -3.1521    0.5283 H   0  0  0  0  0  0  0  0  0  0  0  0
    4.1105    2.6336   -1.9101 H   0  0  0  0  0  0  0  0  0  0  0  0
    6.2204    1.8184   -2.9500 H   0  0  0  0  0  0  0  0  0  0  0  0
    5.2699   -2.2514   -1.8307 H   0  0  0  0  0  0  0  0  0  0  0  0
    7.1463   -1.5761   -2.9615 H   0  0  0  0  0  0  0  0  0  0  0  0
   -2.7745   -2.8909    2.5918 H   0  0  0  0  0  0  0  0  0  0  0  0
   -6.1620    0.9485    1.8475 H   0  0  0  0  0  0  0  0  0  0  0  0
   -4.8363   -0.0707    2.4015 H   0  0  0  0  0  0  0  0  0  0  0  0
   -5.8247   -0.5983    1.0439 H   0  0  0  0  0  0  0  0  0  0  0  0
  1  2  1  0
  2  3  2  3
  3  4  1  0
  4  5  1  0
  5  6  1  0
  6  7  2  0
  7  8  1  0
  8  9  2  0
  9 10  1  0
 10 11  1  0
 11 12  1  0
 12 13  2  0
 12 14  1  0
 14 15  2  0
 15 16  1  0
 16 17  1  0
 17 18  1  0
 18 19  2  0
 19 20  1  0
 20 21  2  0
 21 22  1  0
 21 23  1  0
  6 24  1  0
  2 25  1  0
 10  5  2  0
 15  9  1  0
 18 14  1  0
 22 17  2  0
  1 26  1  0
  1 27  1  0
  1 28  1  0
  3 29  1  0
  4 30  1  0
  4 31  1  0
  7 32  1  0
  8 33  1  0
 19 34  1  0
 20 35  1  0
 22 36  1  0
 23 37  1  0
 24 38  1  0
 25 39  1  0
 25 40  1  0
 25 41  1  0
M  END
>  <Name>  (372) 
Phaseol

>  <PubChem ID>  (372) 
44257530

>  <CDB ID>  (372) 
CDB0372

>  <Smiles>  (372) 
CC(=CCC1=C(C=CC2=C1OC(=O)C3=C2OC4=C3C=CC(=C4)O)O)C

>  <Chemical class>  (372) 
4,7-Dioxygenated Coumarins

>  <Natural source>  (372) 
Phaseolus aureus

>  <Molecular Formula>  (372) 
C20H16O5

>  <InChI-Key>  (372) 
FRXPSBUCIWPZMH-UHFFFAOYSA-N

>  <Total Molweight>  (372) 
336.342

>  <cLogP>  (372) 
4.8632

>  <cLogS>  (372) 
-5.284

>  <H-Acceptors>  (372) 
5

>  <H-Donors>  (372) 
2

>  <Rotatable Bonds>  (372) 
2

>  <Polar Surface Area>  (372) 
79.9

$$$$
CDB0373
     RDKit          3D

 39 43  0  0  0  0  0  0  0  0999 V2000
    5.5064    0.9642    0.8455 C   0  0  0  0  0  0  0  0  0  0  0  0
    4.6113    0.1379   -0.0855 C   0  0  0  0  0  0  0  0  0  0  0  0
    4.0450   -1.0358    0.6796 C   0  0  0  0  0  0  0  0  0  0  0  0
    2.7364   -1.2399    0.8527 C   0  0  0  0  0  0  0  0  0  0  0  0
    1.8106   -0.2790    0.2723 C   0  0  0  0  0  0  0  0  0  0  0  0
    2.3112    0.8149   -0.4398 C   0  0  0  0  0  0  0  0  0  0  0  0
    3.6425    1.0540   -0.6359 O   0  0  0  0  0  0  0  0  0  0  0  0
    1.4434    1.7573   -1.0104 C   0  0  0  0  0  0  0  0  0  0  0  0
    0.0591    1.6246   -0.8802 C   0  0  0  0  0  0  0  0  0  0  0  0
   -0.4536    0.5420   -0.1749 C   0  0  0  0  0  0  0  0  0  0  0  0
    0.4218   -0.3999    0.3952 C   0  0  0  0  0  0  0  0  0  0  0  0
   -0.1129   -1.5179    1.1237 O   0  0  0  0  0  0  0  0  0  0  0  0
   -1.4987   -1.7539    1.3197 C   0  0  0  0  0  0  0  0  0  0  0  0
   -1.8979   -2.7260    1.9510 O   0  0  0  0  0  0  0  0  0  0  0  0
   -2.3747   -0.7747    0.7260 C   0  0  0  0  0  0  0  0  0  0  0  0
   -1.8496    0.2848    0.0349 C   0  0  0  0  0  0  0  0  0  0  0  0
   -2.8081    1.1024   -0.4533 O   0  0  0  0  0  0  0  0  0  0  0  0
   -3.9980    0.5507   -0.0631 C   0  0  0  0  0  0  0  0  0  0  0  0
   -3.7817   -0.6174    0.6725 C   0  0  0  0  0  0  0  0  0  0  0  0
   -4.8992   -1.3220    1.1575 C   0  0  0  0  0  0  0  0  0  0  0  0
   -6.1823   -0.8257    0.8843 C   0  0  0  0  0  0  0  0  0  0  0  0
   -6.3441    0.3460    0.1446 C   0  0  0  0  0  0  0  0  0  0  0  0
   -5.2582    1.0672   -0.3499 C   0  0  0  0  0  0  0  0  0  0  0  0
   -7.5906    0.8364   -0.1260 O   0  0  0  0  0  0  0  0  0  0  0  0
    5.4363   -0.3805   -1.2693 C   0  0  0  0  0  0  0  0  0  0  0  0
    6.3254    0.3687    1.2636 H   0  0  0  0  0  0  0  0  0  0  0  0
    4.9252    1.3814    1.6768 H   0  0  0  0  0  0  0  0  0  0  0  0
    5.9394    1.8194    0.3133 H   0  0  0  0  0  0  0  0  0  0  0  0
    4.7508   -1.7440    1.1066 H   0  0  0  0  0  0  0  0  0  0  0  0
    2.3604   -2.0923    1.4072 H   0  0  0  0  0  0  0  0  0  0  0  0
    1.8548    2.6009   -1.5604 H   0  0  0  0  0  0  0  0  0  0  0  0
   -0.6018    2.3627   -1.3277 H   0  0  0  0  0  0  0  0  0  0  0  0
   -4.7721   -2.2352    1.7339 H   0  0  0  0  0  0  0  0  0  0  0  0
   -7.0431   -1.3721    1.2602 H   0  0  0  0  0  0  0  0  0  0  0  0
   -5.3843    1.9763   -0.9238 H   0  0  0  0  0  0  0  0  0  0  0  0
   -8.2536    0.2474    0.2705 H   0  0  0  0  0  0  0  0  0  0  0  0
    6.2522   -1.0362   -0.9459 H   0  0  0  0  0  0  0  0  0  0  0  0
    5.8681    0.4512   -1.8384 H   0  0  0  0  0  0  0  0  0  0  0  0
    4.8043   -0.9381   -1.9711 H   0  0  0  0  0  0  0  0  0  0  0  0
  1  2  1  0
  2  3  1  0
  3  4  2  0
  4  5  1  0
  5  6  1  0
  6  7  1  0
  6  8  2  0
  8  9  1  0
  9 10  2  0
 10 11  1  0
 11 12  1  0
 12 13  1  0
 13 14  2  0
 13 15  1  0
 15 16  2  0
 16 17  1  0
 17 18  1  0
 18 19  1  0
 19 20  2  0
 20 21  1  0
 21 22  2  0
 22 23  1  0
 22 24  1  0
  2 25  1  0
  7  2  1  0
 11  5  2  0
 16 10  1  0
 19 15  1  0
 23 18  2  0
  1 26  1  0
  1 27  1  0
  1 28  1  0
  3 29  1  0
  4 30  1  0
  8 31  1  0
  9 32  1  0
 20 33  1  0
 21 34  1  0
 23 35  1  0
 24 36  1  0
 25 37  1  0
 25 38  1  0
 25 39  1  0
M  END
>  <Name>  (373) 
Plicadin

>  <PubChem ID>  (373) 
10980538

>  <CDB ID>  (373) 
CDB0373

>  <Smiles>  (373) 
CC1(C=CC2=C(O1)C=CC3=C2OC(=O)C4=C3OC5=C4C=CC(=C5)O)C

>  <Chemical class>  (373) 
4,7-Dioxygenated Coumarins

>  <Natural source>  (373) 
Psoralea plicata

>  <Molecular Formula>  (373) 
C20H14O5

>  <InChI-Key>  (373) 
SPBFWPDNBGDCCJ-UHFFFAOYSA-N

>  <Total Molweight>  (373) 
334.326

>  <cLogP>  (373) 
4.2131

>  <cLogS>  (373) 
-5.9

>  <H-Acceptors>  (373) 
5

>  <H-Donors>  (373) 
1

>  <Rotatable Bonds>  (373) 
0

>  <Polar Surface Area>  (373) 
68.9

$$$$
CDB0374
     RDKit          3D

 80 83  0  0  0  0  0  0  0  0999 V2000
   -2.9034    1.6365    2.3702 C   0  0  0  0  0  0  0  0  0  0  0  0
   -2.2245    0.3320    2.0640 C   0  0  0  0  0  0  0  0  0  0  0  0
   -2.9543   -0.8448    1.8697 C   0  0  0  0  0  0  0  0  0  0  0  0
   -2.3094   -2.0549    1.6077 C   0  0  0  0  0  0  0  0  0  0  0  0
   -0.9200   -2.0906    1.4768 C   0  0  0  0  0  0  0  0  0  0  0  0
   -0.1584   -0.9230    1.6170 C   0  0  0  0  0  0  0  0  0  0  0  0
   -0.8288    0.2649    1.9082 C   0  0  0  0  0  0  0  0  0  0  0  0
   -0.1047    1.4616    2.0589 O   0  0  0  0  0  0  0  0  0  0  0  0
    1.2681    1.4944    1.9403 C   0  0  0  0  0  0  0  0  0  0  0  0
    1.9052    2.5388    2.0908 O   0  0  0  0  0  0  0  0  0  0  0  0
    2.0020    0.2279    1.6210 C   0  0  0  0  0  0  0  0  0  0  0  0
    1.3043   -0.9147    1.4712 C   0  0  0  0  0  0  0  0  0  0  0  0
    1.8349   -2.1522    1.1783 O   0  0  0  0  0  0  0  0  0  0  0  0
    3.3779    0.4306    1.5289 N   0  0  0  0  0  0  0  0  0  0  0  0
    4.4027   -0.4394    1.2449 C   0  0  0  0  0  0  0  0  0  0  0  0
    4.2546   -1.6187    0.9437 O   0  0  0  0  0  0  0  0  0  0  0  0
    5.7773    0.1360    1.2852 C   0  0  0  0  0  0  0  0  0  0  0  0
    6.7455   -0.3972    0.4233 C   0  0  0  0  0  0  0  0  0  0  0  0
    8.0596    0.1032    0.4143 C   0  0  0  0  0  0  0  0  0  0  0  0
    8.3809    1.1459    1.2905 C   0  0  0  0  0  0  0  0  0  0  0  0
    7.4298    1.6713    2.1663 C   0  0  0  0  0  0  0  0  0  0  0  0
    6.1281    1.1641    2.1685 C   0  0  0  0  0  0  0  0  0  0  0  0
    9.6525    1.6438    1.2920 O   0  0  0  0  0  0  0  0  0  0  0  0
    9.0707   -0.4709   -0.5526 C   0  0  0  0  0  0  0  0  0  0  0  0
    8.9424    0.1196   -1.9328 C   0  0  0  0  0  0  0  0  0  0  0  0
    9.8056    0.9293   -2.5781 C   0  0  0  0  0  0  0  0  0  0  0  0
    9.5080    1.4091   -3.9749 C   0  0  0  0  0  0  0  0  0  0  0  0
   11.1013    1.4431   -2.0140 C   0  0  0  0  0  0  0  0  0  0  0  0
   -4.3172   -0.8482    2.0034 O   0  0  0  0  0  0  0  0  0  0  0  0
   -4.9659   -0.7913    0.7180 C   0  0  0  0  0  0  0  0  0  0  0  0
   -6.3363   -1.4952    0.8547 C   0  0  0  0  0  0  0  0  0  0  0  0
   -7.4057   -0.8252   -0.0305 C   0  0  0  0  0  0  0  0  0  0  0  0
   -6.7528   -0.3626   -1.3470 C   0  0  0  0  0  0  0  0  0  0  0  0
   -5.6845    0.7281   -1.0096 C   0  0  0  0  0  0  0  0  0  0  0  0
   -5.1374    0.5656    0.3125 O   0  0  0  0  0  0  0  0  0  0  0  0
   -6.2772    2.1480   -1.0140 C   0  0  0  0  0  0  0  0  0  0  0  0
   -4.5408    0.6893   -2.0335 C   0  0  0  0  0  0  0  0  0  0  0  0
   -7.7256    0.1705   -2.2585 O   0  0  0  0  0  0  0  0  0  0  0  0
   -8.1036   -0.7470   -3.2761 C   0  0  0  0  0  0  0  0  0  0  0  0
   -8.4805   -1.7566   -0.3038 O   0  0  0  0  0  0  0  0  0  0  0  0
   -9.4058   -1.8749    0.6726 C   0  0  0  0  0  0  0  0  0  0  0  0
   -9.3741   -1.3371    1.7656 O   0  0  0  0  0  0  0  0  0  0  0  0
  -10.3860   -2.7141    0.2776 N   0  0  0  0  0  0  0  0  0  0  0  0
   -6.1718   -2.8793    0.4695 O   0  0  0  0  0  0  0  0  0  0  0  0
   -3.0168    2.2231    1.4533 H   0  0  0  0  0  0  0  0  0  0  0  0
   -3.8922    1.4870    2.8150 H   0  0  0  0  0  0  0  0  0  0  0  0
   -2.3243    2.2173    3.0957 H   0  0  0  0  0  0  0  0  0  0  0  0
   -2.8863   -2.9705    1.5033 H   0  0  0  0  0  0  0  0  0  0  0  0
   -0.4375   -3.0426    1.2638 H   0  0  0  0  0  0  0  0  0  0  0  0
    2.8068   -2.0730    1.0615 H   0  0  0  0  0  0  0  0  0  0  0  0
    3.6272    1.4103    1.6704 H   0  0  0  0  0  0  0  0  0  0  0  0
    6.4736   -1.2062   -0.2539 H   0  0  0  0  0  0  0  0  0  0  0  0
    7.6869    2.4680    2.8587 H   0  0  0  0  0  0  0  0  0  0  0  0
    5.4151    1.5671    2.8828 H   0  0  0  0  0  0  0  0  0  0  0  0
    9.7035    2.3889    1.9122 H   0  0  0  0  0  0  0  0  0  0  0  0
    8.9090   -1.5546   -0.6289 H   0  0  0  0  0  0  0  0  0  0  0  0
   10.0821   -0.3787   -0.1465 H   0  0  0  0  0  0  0  0  0  0  0  0
    8.0324   -0.1776   -2.4538 H   0  0  0  0  0  0  0  0  0  0  0  0
   10.2974    1.0872   -4.6621 H   0  0  0  0  0  0  0  0  0  0  0  0
    8.5577    1.0202   -4.3554 H   0  0  0  0  0  0  0  0  0  0  0  0
    9.4517    2.5024   -3.9963 H   0  0  0  0  0  0  0  0  0  0  0  0
   11.9394    1.1071   -2.6338 H   0  0  0  0  0  0  0  0  0  0  0  0
   11.2973    1.1126   -0.9926 H   0  0  0  0  0  0  0  0  0  0  0  0
   11.0978    2.5383   -2.0046 H   0  0  0  0  0  0  0  0  0  0  0  0
   -4.3613   -1.3224   -0.0303 H   0  0  0  0  0  0  0  0  0  0  0  0
   -6.6676   -1.5097    1.8992 H   0  0  0  0  0  0  0  0  0  0  0  0
   -7.8229    0.0596    0.4688 H   0  0  0  0  0  0  0  0  0  0  0  0
   -6.2596   -1.2277   -1.8129 H   0  0  0  0  0  0  0  0  0  0  0  0
   -7.1059    2.2288   -0.3018 H   0  0  0  0  0  0  0  0  0  0  0  0
   -5.5276    2.8819   -0.6940 H   0  0  0  0  0  0  0  0  0  0  0  0
   -6.6384    2.4447   -2.0039 H   0  0  0  0  0  0  0  0  0  0  0  0
   -4.9009    0.9022   -3.0455 H   0  0  0  0  0  0  0  0  0  0  0  0
   -4.0490   -0.2891   -2.0475 H   0  0  0  0  0  0  0  0  0  0  0  0
   -3.7640    1.4191   -1.7778 H   0  0  0  0  0  0  0  0  0  0  0  0
   -8.5172   -1.6649   -2.8507 H   0  0  0  0  0  0  0  0  0  0  0  0
   -7.2436   -0.9817   -3.9108 H   0  0  0  0  0  0  0  0  0  0  0  0
   -8.8709   -0.2742   -3.8950 H   0  0  0  0  0  0  0  0  0  0  0  0
  -11.1556   -2.8954    0.9049 H   0  0  0  0  0  0  0  0  0  0  0  0
  -10.3726   -3.1162   -0.6464 H   0  0  0  0  0  0  0  0  0  0  0  0
   -7.0463   -3.2967    0.5745 H   0  0  0  0  0  0  0  0  0  0  0  0
  1  2  1  0
  2  3  2  0
  3  4  1  0
  4  5  2  0
  5  6  1  0
  6  7  2  0
  7  8  1  0
  8  9  1  0
  9 10  2  0
  9 11  1  0
 11 12  2  0
 12 13  1  0
 11 14  1  0
 14 15  1  0
 15 16  2  0
 15 17  1  0
 17 18  2  0
 18 19  1  0
 19 20  2  0
 20 21  1  0
 21 22  2  0
 20 23  1  0
 19 24  1  0
 24 25  1  0
 25 26  2  3
 26 27  1  0
 26 28  1  0
  3 29  1  0
 29 30  1  0
 30 31  1  0
 31 32  1  0
 32 33  1  0
 33 34  1  0
 34 35  1  0
 34 36  1  0
 34 37  1  0
 33 38  1  0
 38 39  1  0
 32 40  1  0
 40 41  1  0
 41 42  2  0
 41 43  1  0
 31 44  1  0
  7  2  1  0
 12  6  1  0
 22 17  1  0
 35 30  1  0
  1 45  1  0
  1 46  1  0
  1 47  1  0
  4 48  1  0
  5 49  1  0
 13 50  1  0
 14 51  1  0
 18 52  1  0
 21 53  1  0
 22 54  1  0
 23 55  1  0
 24 56  1  0
 24 57  1  0
 25 58  1  0
 27 59  1  0
 27 60  1  0
 27 61  1  0
 28 62  1  0
 28 63  1  0
 28 64  1  0
 30 65  1  0
 31 66  1  0
 32 67  1  0
 33 68  1  0
 36 69  1  0
 36 70  1  0
 36 71  1  0
 37 72  1  0
 37 73  1  0
 37 74  1  0
 39 75  1  0
 39 76  1  0
 39 77  1  0
 43 78  1  0
 43 79  1  0
 44 80  1  0
M  END
>  <Name>  (374) 
Novobiocin

>  <PubChem ID>  (374) 
54675769

>  <CDB ID>  (374) 
CDB0374

>  <Smiles>  (374) 
CC1=C(C=CC2=C1OC(=O)C(=C2O)NC(=O)C3=CC(=C(C=C3)O)CC=C(C)C)OC4C(C(C(C(O4)(C)C)OC)OC(=O)N)O

>  <Chemical class>  (374) 
4,7-Dioxygenated Coumarins

>  <Natural source>  (374) 
Streptomyces niveus

>  <Molecular Formula>  (374) 
C31H36N2O11

>  <InChI-Key>  (374) 
YJQPYGGHQPGBLI-UHFFFAOYSA-N

>  <Total Molweight>  (374) 
612.63

>  <cLogP>  (374) 
3.27

>  <cLogS>  (374) 
-5.272

>  <H-Acceptors>  (374) 
13

>  <H-Donors>  (374) 
5

>  <Rotatable Bonds>  (374) 
9

>  <Polar Surface Area>  (374) 
196.1

$$$$
CDB0375
     RDKit          3D

 32 35  0  0  0  0  0  0  0  0999 V2000
    5.6587   -0.1965    0.4719 C   0  0  0  0  0  0  0  0  0  0  0  0
    4.3080   -0.5654    0.7154 O   0  0  0  0  0  0  0  0  0  0  0  0
    3.3334    0.1513    0.0771 C   0  0  0  0  0  0  0  0  0  0  0  0
    3.5552    1.2159   -0.7957 C   0  0  0  0  0  0  0  0  0  0  0  0
    2.4736    1.8723   -1.3889 C   0  0  0  0  0  0  0  0  0  0  0  0
    1.1640    1.4697   -1.1142 C   0  0  0  0  0  0  0  0  0  0  0  0
    0.9163    0.4036   -0.2412 C   0  0  0  0  0  0  0  0  0  0  0  0
    2.0094   -0.2345    0.3372 C   0  0  0  0  0  0  0  0  0  0  0  0
    1.8017   -1.3125    1.2215 O   0  0  0  0  0  0  0  0  0  0  0  0
    0.5392   -1.7862    1.5572 C   0  0  0  0  0  0  0  0  0  0  0  0
    0.4282   -2.7274    2.3322 O   0  0  0  0  0  0  0  0  0  0  0  0
   -0.6130   -1.0972    0.9342 C   0  0  0  0  0  0  0  0  0  0  0  0
   -0.4327   -0.0671    0.0883 C   0  0  0  0  0  0  0  0  0  0  0  0
   -1.4461    0.6365   -0.5404 O   0  0  0  0  0  0  0  0  0  0  0  0
   -2.7426    0.2767   -0.3001 C   0  0  0  0  0  0  0  0  0  0  0  0
   -3.7400    1.0055   -0.9486 C   0  0  0  0  0  0  0  0  0  0  0  0
   -5.0827    0.6837   -0.7418 C   0  0  0  0  0  0  0  0  0  0  0  0
   -5.4266   -0.3651    0.1120 C   0  0  0  0  0  0  0  0  0  0  0  0
   -4.4273   -1.0928    0.7598 C   0  0  0  0  0  0  0  0  0  0  0  0
   -3.0828   -0.7665    0.5494 C   0  0  0  0  0  0  0  0  0  0  0  0
   -2.0085   -1.5165    1.2190 C   0  0  0  0  0  0  0  0  0  0  0  0
   -2.3031   -2.4375    1.9690 O   0  0  0  0  0  0  0  0  0  0  0  0
    5.8545    0.8276    0.8062 H   0  0  0  0  0  0  0  0  0  0  0  0
    6.2987   -0.8652    1.0556 H   0  0  0  0  0  0  0  0  0  0  0  0
    5.9185   -0.3247   -0.5841 H   0  0  0  0  0  0  0  0  0  0  0  0
    4.5555    1.5610   -1.0368 H   0  0  0  0  0  0  0  0  0  0  0  0
    2.6524    2.7024   -2.0692 H   0  0  0  0  0  0  0  0  0  0  0  0
    0.3456    2.0030   -1.5933 H   0  0  0  0  0  0  0  0  0  0  0  0
   -3.4757    1.8230   -1.6144 H   0  0  0  0  0  0  0  0  0  0  0  0
   -5.8620    1.2504   -1.2464 H   0  0  0  0  0  0  0  0  0  0  0  0
   -6.4724   -0.6167    0.2738 H   0  0  0  0  0  0  0  0  0  0  0  0
   -4.6975   -1.9106    1.4255 H   0  0  0  0  0  0  0  0  0  0  0  0
  1  2  1  0
  2  3  1  0
  3  4  1  0
  4  5  2  0
  5  6  1  0
  6  7  2  0
  7  8  1  0
  8  9  1  0
  9 10  1  0
 10 11  2  0
 10 12  1  0
 12 13  2  0
 13 14  1  0
 14 15  1  0
 15 16  2  0
 16 17  1  0
 17 18  2  0
 18 19  1  0
 19 20  2  0
 20 21  1  0
 21 22  2  0
  8  3  2  0
 13  7  1  0
 21 12  1  0
 20 15  1  0
  1 23  1  0
  1 24  1  0
  1 25  1  0
  4 26  1  0
  5 27  1  0
  6 28  1  0
 16 29  1  0
 17 30  1  0
 18 31  1  0
 19 32  1  0
M  END
>  <Name>  (375) 
Frutinone B

>  <PubChem ID>  (375) 
11808521

>  <CDB ID>  (375) 
CDB0375

>  <Smiles>  (375) 
COC1=CC=CC2=C1OC(=O)C3=C2OC4=CC=CC=C4C3=O

>  <Chemical class>  (375) 
4,8-Dioxygenated Coumarins

>  <Natural source>  (375) 
Polygala fruticosa

>  <Molecular Formula>  (375) 
C17H10O5

>  <InChI-Key>  (375) 
YEEPARQWBYNUDV-UHFFFAOYSA-N

>  <Total Molweight>  (375) 
294.261

>  <cLogP>  (375) 
2.6776

>  <cLogS>  (375) 
-3.732

>  <H-Acceptors>  (375) 
5

>  <H-Donors>  (375) 
0

>  <Rotatable Bonds>  (375) 
1

>  <Polar Surface Area>  (375) 
61.83

$$$$
CDB0376
     RDKit          3D

 32 33  0  0  0  0  0  0  0  0999 V2000
   -3.6857    1.2045   -0.4070 C   0  0  0  0  0  0  0  0  0  0  0  0
   -3.4804   -0.1212    0.2719 C   0  0  0  0  0  0  0  0  0  0  0  0
   -2.6998   -1.1190   -0.1889 C   0  0  0  0  0  0  0  0  0  0  0  0
   -1.8538   -1.1432   -1.4299 C   0  0  0  0  0  0  0  0  0  0  0  0
   -0.5780   -1.7229   -1.1408 O   0  0  0  0  0  0  0  0  0  0  0  0
    0.4282   -0.9144   -0.6926 C   0  0  0  0  0  0  0  0  0  0  0  0
    0.3137    0.4273   -0.3303 C   0  0  0  0  0  0  0  0  0  0  0  0
    1.4335    1.1414    0.1162 C   0  0  0  0  0  0  0  0  0  0  0  0
    2.6852    0.5269    0.2331 C   0  0  0  0  0  0  0  0  0  0  0  0
    3.8921    1.1779    0.7330 C   0  0  0  0  0  0  0  0  0  0  0  0
    5.0425    0.4993    0.7943 C   0  0  0  0  0  0  0  0  0  0  0  0
    5.1581   -0.9065    0.3755 C   0  0  0  0  0  0  0  0  0  0  0  0
    6.2345   -1.4892    0.4284 O   0  0  0  0  0  0  0  0  0  0  0  0
    3.9970   -1.5190   -0.0668 O   0  0  0  0  0  0  0  0  0  0  0  0
    2.7748   -0.8165   -0.1354 C   0  0  0  0  0  0  0  0  0  0  0  0
    1.6711   -1.5378   -0.5921 C   0  0  0  0  0  0  0  0  0  0  0  0
    1.2030    2.4567    0.4188 O   0  0  0  0  0  0  0  0  0  0  0  0
   -4.2413   -0.2791    1.5629 C   0  0  0  0  0  0  0  0  0  0  0  0
   -3.1951    1.2740   -1.3801 H   0  0  0  0  0  0  0  0  0  0  0  0
   -3.2968    2.0126    0.2211 H   0  0  0  0  0  0  0  0  0  0  0  0
   -4.7539    1.3804   -0.5730 H   0  0  0  0  0  0  0  0  0  0  0  0
   -2.6447   -2.0421    0.3879 H   0  0  0  0  0  0  0  0  0  0  0  0
   -2.3372   -1.8172   -2.1466 H   0  0  0  0  0  0  0  0  0  0  0  0
   -1.7492   -0.1830   -1.9423 H   0  0  0  0  0  0  0  0  0  0  0  0
   -0.6341    0.9521   -0.3763 H   0  0  0  0  0  0  0  0  0  0  0  0
    3.8596    2.2036    1.0766 H   0  0  0  0  0  0  0  0  0  0  0  0
    5.9539    0.9518    1.1666 H   0  0  0  0  0  0  0  0  0  0  0  0
    1.7796   -2.5836   -0.8667 H   0  0  0  0  0  0  0  0  0  0  0  0
    2.0456    2.9309    0.4796 H   0  0  0  0  0  0  0  0  0  0  0  0
   -4.0649   -1.2519    2.0340 H   0  0  0  0  0  0  0  0  0  0  0  0
   -5.3174   -0.1873    1.3827 H   0  0  0  0  0  0  0  0  0  0  0  0
   -3.9400    0.4947    2.2766 H   0  0  0  0  0  0  0  0  0  0  0  0
  1  2  1  0
  2  3  2  3
  3  4  1  0
  4  5  1  0
  5  6  1  0
  6  7  2  0
  7  8  1  0
  8  9  2  0
  9 10  1  0
 10 11  2  0
 11 12  1  0
 12 13  2  0
 12 14  1  0
 14 15  1  0
 15 16  2  0
  8 17  1  0
  2 18  1  0
 16  6  1  0
 15  9  1  0
  1 19  1  0
  1 20  1  0
  1 21  1  0
  3 22  1  0
  4 23  1  0
  4 24  1  0
  7 25  1  0
 10 26  1  0
 11 27  1  0
 16 28  1  0
 17 29  1  0
 18 30  1  0
 18 31  1  0
 18 32  1  0
M  END
>  <Name>  (376) 
Anisocoumarin B

>  <PubChem ID>  (376) 
14259051

>  <CDB ID>  (376) 
CDB0376

>  <Smiles>  (376) 
CC(=CCOC1=CC(=C2C=CC(=O)OC2=C1)O)C

>  <Chemical class>  (376) 
5,7-Dioxygenated Coumarins

>  <Natural source>  (376) 
Clausen a anisata

>  <Molecular Formula>  (376) 
C14H14O4

>  <InChI-Key>  (376) 
HOULBXRCMJRUKO-UHFFFAOYSA-N

>  <Total Molweight>  (376) 
246.261

>  <cLogP>  (376) 
2.751

>  <cLogS>  (376) 
-2.828

>  <H-Acceptors>  (376) 
4

>  <H-Donors>  (376) 
1

>  <Rotatable Bonds>  (376) 
3

>  <Polar Surface Area>  (376) 
55.76

$$$$
CDB0377
     RDKit          3D

 25 26  0  0  0  0  0  0  0  0999 V2000
    3.6865   -0.9143   -0.3524 C   0  0  0  0  0  0  0  0  0  0  0  0
    3.0306    0.3450   -0.2783 O   0  0  0  0  0  0  0  0  0  0  0  0
    1.6689    0.3375   -0.1468 C   0  0  0  0  0  0  0  0  0  0  0  0
    1.0896    1.6028   -0.0801 C   0  0  0  0  0  0  0  0  0  0  0  0
   -0.2902    1.7199    0.0543 C   0  0  0  0  0  0  0  0  0  0  0  0
   -1.1192    0.6014    0.1249 C   0  0  0  0  0  0  0  0  0  0  0  0
   -2.5556    0.8238    0.2656 C   0  0  0  0  0  0  0  0  0  0  0  0
   -3.0414    2.0671    0.3231 C   0  0  0  0  0  0  0  0  0  0  0  0
   -2.1760    3.2548    0.2495 C   0  0  0  0  0  0  0  0  0  0  0  0
   -2.6528    4.3823    0.3052 O   0  0  0  0  0  0  0  0  0  0  0  0
   -0.8142    3.0277    0.1160 O   0  0  0  0  0  0  0  0  0  0  0  0
   -0.5389   -0.6779    0.0580 C   0  0  0  0  0  0  0  0  0  0  0  0
    0.8546   -0.7996   -0.0777 C   0  0  0  0  0  0  0  0  0  0  0  0
   -1.4068   -1.7395    0.1329 O   0  0  0  0  0  0  0  0  0  0  0  0
   -0.8597   -3.0502    0.0689 C   0  0  0  0  0  0  0  0  0  0  0  0
    3.5350   -1.4924    0.5651 H   0  0  0  0  0  0  0  0  0  0  0  0
    3.3611   -1.4771   -1.2335 H   0  0  0  0  0  0  0  0  0  0  0  0
    4.7597   -0.7270   -0.4546 H   0  0  0  0  0  0  0  0  0  0  0  0
    1.7108    2.4926   -0.1326 H   0  0  0  0  0  0  0  0  0  0  0  0
   -3.2160   -0.0349    0.3222 H   0  0  0  0  0  0  0  0  0  0  0  0
   -4.1017    2.2610    0.4272 H   0  0  0  0  0  0  0  0  0  0  0  0
    1.3069   -1.7813   -0.1297 H   0  0  0  0  0  0  0  0  0  0  0  0
   -0.3586   -3.2223   -0.8892 H   0  0  0  0  0  0  0  0  0  0  0  0
   -0.1846   -3.2375    0.9104 H   0  0  0  0  0  0  0  0  0  0  0  0
   -1.6879   -3.7616    0.1430 H   0  0  0  0  0  0  0  0  0  0  0  0
  1  2  1  0
  2  3  1  0
  3  4  2  0
  4  5  1  0
  5  6  2  0
  6  7  1  0
  7  8  2  0
  8  9  1  0
  9 10  2  0
  9 11  1  0
  6 12  1  0
 12 13  2  0
 12 14  1  0
 14 15  1  0
 13  3  1  0
 11  5  1  0
  1 16  1  0
  1 17  1  0
  1 18  1  0
  4 19  1  0
  7 20  1  0
  8 21  1  0
 13 22  1  0
 15 23  1  0
 15 24  1  0
 15 25  1  0
M  END
>  <Name>  (377) 
Limettin (Citropten)

>  <PubChem ID>  (377) 
2775

>  <CDB ID>  (377) 
CDB0377

>  <Smiles>  (377) 
COC1=CC2=C(C=CC(=O)O2)C(=C1)OC

>  <Chemical class>  (377) 
5,7-Dioxygenated Coumarins

>  <Natural source>  (377) 
Citrus limeua

>  <Molecular Formula>  (377) 
C11H10O4

>  <InChI-Key>  (377) 
NXJCRELRQHZBQA-UHFFFAOYSA-N

>  <Total Molweight>  (377) 
206.196

>  <cLogP>  (377) 
1.3574

>  <cLogS>  (377) 
-2.406

>  <H-Acceptors>  (377) 
4

>  <H-Donors>  (377) 
0

>  <Rotatable Bonds>  (377) 
2

>  <Polar Surface Area>  (377) 
44.76

$$$$
CDB0378
     RDKit          3D

 47 49  0  0  0  0  0  0  0  0999 V2000
   -3.9799    1.9041    1.6502 C   0  0  0  0  0  0  0  0  0  0  0  0
   -4.7523    1.0108    0.7202 C   0  0  0  0  0  0  0  0  0  0  0  0
   -4.4708   -0.2835    0.4702 C   0  0  0  0  0  0  0  0  0  0  0  0
   -3.3686   -1.1352    1.0476 C   0  0  0  0  0  0  0  0  0  0  0  0
   -2.3645   -1.5680    0.0004 C   0  0  0  0  0  0  0  0  0  0  0  0
   -2.5835   -2.7172   -0.7720 C   0  0  0  0  0  0  0  0  0  0  0  0
   -1.6813   -3.1110   -1.7583 C   0  0  0  0  0  0  0  0  0  0  0  0
   -0.5325   -2.3537   -1.9879 C   0  0  0  0  0  0  0  0  0  0  0  0
   -0.2768   -1.1941   -1.2412 C   0  0  0  0  0  0  0  0  0  0  0  0
   -1.2098   -0.8068   -0.2580 C   0  0  0  0  0  0  0  0  0  0  0  0
   -1.0250    0.3303    0.4893 O   0  0  0  0  0  0  0  0  0  0  0  0
    0.9767   -0.4533   -1.5021 C   0  0  0  0  0  0  0  0  0  0  0  0
    1.9013   -0.3867   -0.5302 C   0  0  0  0  0  0  0  0  0  0  0  0
    3.1643    0.3193   -0.7269 C   0  0  0  0  0  0  0  0  0  0  0  0
    3.3902    0.9129   -1.9669 C   0  0  0  0  0  0  0  0  0  0  0  0
    4.5619    1.6063   -2.2480 C   0  0  0  0  0  0  0  0  0  0  0  0
    5.5283    1.7046   -1.2587 C   0  0  0  0  0  0  0  0  0  0  0  0
    5.3378    1.1237   -0.0040 C   0  0  0  0  0  0  0  0  0  0  0  0
    4.1526    0.4262    0.2712 C   0  0  0  0  0  0  0  0  0  0  0  0
    3.8691   -0.1773    1.4705 O   0  0  0  0  0  0  0  0  0  0  0  0
    4.8389   -0.0856    2.5062 C   0  0  0  0  0  0  0  0  0  0  0  0
    6.6690    2.3898   -1.5589 O   0  0  0  0  0  0  0  0  0  0  0  0
    2.4330    0.8354   -2.9956 O   0  0  0  0  0  0  0  0  0  0  0  0
    1.2221    0.1720   -2.8316 C   0  0  0  0  0  0  0  0  0  0  0  0
    0.4039    0.1168   -3.7432 O   0  0  0  0  0  0  0  0  0  0  0  0
   -3.7101   -3.4614   -0.5524 O   0  0  0  0  0  0  0  0  0  0  0  0
   -5.9135    1.6855    0.0381 C   0  0  0  0  0  0  0  0  0  0  0  0
   -4.6378    2.2808    2.4406 H   0  0  0  0  0  0  0  0  0  0  0  0
   -3.5786    2.7613    1.0992 H   0  0  0  0  0  0  0  0  0  0  0  0
   -3.1380    1.4090    2.1371 H   0  0  0  0  0  0  0  0  0  0  0  0
   -5.1077   -0.8246   -0.2301 H   0  0  0  0  0  0  0  0  0  0  0  0
   -2.8520   -0.6477    1.8795 H   0  0  0  0  0  0  0  0  0  0  0  0
   -3.8247   -2.0216    1.5074 H   0  0  0  0  0  0  0  0  0  0  0  0
   -1.8539   -4.0001   -2.3572 H   0  0  0  0  0  0  0  0  0  0  0  0
    0.1621   -2.6766   -2.7614 H   0  0  0  0  0  0  0  0  0  0  0  0
   -0.4295    0.9301    0.0121 H   0  0  0  0  0  0  0  0  0  0  0  0
    1.7369   -0.8606    0.4348 H   0  0  0  0  0  0  0  0  0  0  0  0
    4.7188    2.0615   -3.2209 H   0  0  0  0  0  0  0  0  0  0  0  0
    6.1163    1.2225    0.7431 H   0  0  0  0  0  0  0  0  0  0  0  0
    5.0077    0.9562    2.7974 H   0  0  0  0  0  0  0  0  0  0  0  0
    4.4462   -0.6155    3.3794 H   0  0  0  0  0  0  0  0  0  0  0  0
    5.7747   -0.5732    2.2142 H   0  0  0  0  0  0  0  0  0  0  0  0
    7.2613    2.3849   -0.7892 H   0  0  0  0  0  0  0  0  0  0  0  0
   -3.7393   -4.1877   -1.1962 H   0  0  0  0  0  0  0  0  0  0  0  0
   -5.5623    2.5354   -0.5563 H   0  0  0  0  0  0  0  0  0  0  0  0
   -6.4517    1.0097   -0.6348 H   0  0  0  0  0  0  0  0  0  0  0  0
   -6.6286    2.0523    0.7818 H   0  0  0  0  0  0  0  0  0  0  0  0
  1  2  1  0
  2  3  2  3
  3  4  1  0
  4  5  1  0
  5  6  2  0
  6  7  1  0
  7  8  2  0
  8  9  1  0
  9 10  2  0
 10 11  1  0
  9 12  1  0
 12 13  2  0
 13 14  1  0
 14 15  2  0
 15 16  1  0
 16 17  2  0
 17 18  1  0
 18 19  2  0
 19 20  1  0
 20 21  1  0
 17 22  1  0
 15 23  1  0
 23 24  1  0
 24 25  2  0
  6 26  1  0
  2 27  1  0
 10  5  1  0
 24 12  1  0
 19 14  1  0
  1 28  1  0
  1 29  1  0
  1 30  1  0
  3 31  1  0
  4 32  1  0
  4 33  1  0
  7 34  1  0
  8 35  1  0
 11 36  1  0
 13 37  1  0
 16 38  1  0
 18 39  1  0
 21 40  1  0
 21 41  1  0
 21 42  1  0
 22 43  1  0
 26 44  1  0
 27 45  1  0
 27 46  1  0
 27 47  1  0
M  END
>  <Name>  (378) 
Gancaonin W

>  <PubChem ID>  (378) 
15380910

>  <CDB ID>  (378) 
CDB0378

>  <Smiles>  (378) 
CC(=CCC1=C(C=CC(=C1O)C2=CC3=C(C=C(C=C3OC)O)OC2=O)O)C

>  <Chemical class>  (378) 
5,7-Dioxygenated Coumarins

>  <Natural source>  (378) 
Glycyrrhiza sp.

>  <Molecular Formula>  (378) 
C21H20O6

>  <InChI-Key>  (378) 
RNFUXVIDJFTPRS-UHFFFAOYSA-N

>  <Total Molweight>  (378) 
368.384

>  <cLogP>  (378) 
3.668

>  <cLogS>  (378) 
-3.396

>  <H-Acceptors>  (378) 
6

>  <H-Donors>  (378) 
3

>  <Rotatable Bonds>  (378) 
4

>  <Polar Surface Area>  (378) 
96.22

$$$$
CDB0379
     RDKit          3D

 45 48  0  0  0  0  0  0  0  0999 V2000
    5.8680   -1.5074   -1.2851 C   0  0  0  0  0  0  0  0  0  0  0  0
    5.3104   -0.4494   -0.3257 C   0  0  0  0  0  0  0  0  0  0  0  0
    4.9316    0.7839   -1.1098 C   0  0  0  0  0  0  0  0  0  0  0  0
    3.6909    1.2772   -1.1460 C   0  0  0  0  0  0  0  0  0  0  0  0
    2.6488    0.5913   -0.3916 C   0  0  0  0  0  0  0  0  0  0  0  0
    2.9835   -0.5501    0.3386 C   0  0  0  0  0  0  0  0  0  0  0  0
    4.2390   -1.0850    0.4010 O   0  0  0  0  0  0  0  0  0  0  0  0
    2.0098   -1.2223    1.0759 C   0  0  0  0  0  0  0  0  0  0  0  0
    0.6887   -0.7694    1.0787 C   0  0  0  0  0  0  0  0  0  0  0  0
    0.3117    0.3677    0.3428 C   0  0  0  0  0  0  0  0  0  0  0  0
    1.3186    1.0518   -0.3679 C   0  0  0  0  0  0  0  0  0  0  0  0
    1.0240    2.1994   -1.0663 O   0  0  0  0  0  0  0  0  0  0  0  0
   -1.1162    0.7837    0.3362 C   0  0  0  0  0  0  0  0  0  0  0  0
   -2.0647   -0.1284    0.0598 C   0  0  0  0  0  0  0  0  0  0  0  0
   -3.4859    0.2091    0.0593 C   0  0  0  0  0  0  0  0  0  0  0  0
   -3.8417    1.5217    0.3617 C   0  0  0  0  0  0  0  0  0  0  0  0
   -5.1686    1.9417    0.3963 C   0  0  0  0  0  0  0  0  0  0  0  0
   -6.1588    1.0115    0.1190 C   0  0  0  0  0  0  0  0  0  0  0  0
   -5.8394   -0.3112   -0.1871 C   0  0  0  0  0  0  0  0  0  0  0  0
   -4.5016   -0.7249   -0.2200 C   0  0  0  0  0  0  0  0  0  0  0  0
   -4.0926   -2.0037   -0.5045 O   0  0  0  0  0  0  0  0  0  0  0  0
   -5.0967   -2.9543   -0.8390 C   0  0  0  0  0  0  0  0  0  0  0  0
   -7.4791    1.3540    0.1354 O   0  0  0  0  0  0  0  0  0  0  0  0
   -2.8625    2.4916    0.6417 O   0  0  0  0  0  0  0  0  0  0  0  0
   -1.5066    2.1953    0.6034 C   0  0  0  0  0  0  0  0  0  0  0  0
   -0.6648    3.0770    0.7662 O   0  0  0  0  0  0  0  0  0  0  0  0
    6.3768   -0.0809    0.7126 C   0  0  0  0  0  0  0  0  0  0  0  0
    6.7399   -1.1417   -1.8387 H   0  0  0  0  0  0  0  0  0  0  0  0
    6.1611   -2.4128   -0.7405 H   0  0  0  0  0  0  0  0  0  0  0  0
    5.1057   -1.8177   -2.0099 H   0  0  0  0  0  0  0  0  0  0  0  0
    5.7152    1.2864   -1.6706 H   0  0  0  0  0  0  0  0  0  0  0  0
    3.4406    2.1624   -1.7199 H   0  0  0  0  0  0  0  0  0  0  0  0
    2.2815   -2.1061    1.6476 H   0  0  0  0  0  0  0  0  0  0  0  0
   -0.0435   -1.3210    1.6656 H   0  0  0  0  0  0  0  0  0  0  0  0
    0.5883    2.8066   -0.4284 H   0  0  0  0  0  0  0  0  0  0  0  0
   -1.8065   -1.1575   -0.1754 H   0  0  0  0  0  0  0  0  0  0  0  0
   -5.4030    2.9733    0.6346 H   0  0  0  0  0  0  0  0  0  0  0  0
   -6.6583   -0.9925   -0.3924 H   0  0  0  0  0  0  0  0  0  0  0  0
   -5.7752   -3.1232    0.0035 H   0  0  0  0  0  0  0  0  0  0  0  0
   -5.6449   -2.6512   -1.7371 H   0  0  0  0  0  0  0  0  0  0  0  0
   -4.5975   -3.9030   -1.0587 H   0  0  0  0  0  0  0  0  0  0  0  0
   -7.5591    2.2981    0.3532 H   0  0  0  0  0  0  0  0  0  0  0  0
    5.9832    0.6431    1.4363 H   0  0  0  0  0  0  0  0  0  0  0  0
    6.6788   -0.9615    1.2918 H   0  0  0  0  0  0  0  0  0  0  0  0
    7.2713    0.3488    0.2484 H   0  0  0  0  0  0  0  0  0  0  0  0
  1  2  1  0
  2  3  1  0
  3  4  2  0
  4  5  1  0
  5  6  2  0
  6  7  1  0
  6  8  1  0
  8  9  2  0
  9 10  1  0
 10 11  2  0
 11 12  1  0
 10 13  1  0
 13 14  2  0
 14 15  1  0
 15 16  2  0
 16 17  1  0
 17 18  2  0
 18 19  1  0
 19 20  2  0
 20 21  1  0
 21 22  1  0
 18 23  1  0
 16 24  1  0
 24 25  1  0
 25 26  2  0
  2 27  1  0
  7  2  1  0
 11  5  1  0
 25 13  1  0
 20 15  1  0
  1 28  1  0
  1 29  1  0
  1 30  1  0
  3 31  1  0
  4 32  1  0
  8 33  1  0
  9 34  1  0
 12 35  1  0
 14 36  1  0
 17 37  1  0
 19 38  1  0
 22 39  1  0
 22 40  1  0
 22 41  1  0
 23 42  1  0
 27 43  1  0
 27 44  1  0
 27 45  1  0
M  END
>  <Name>  (379) 
Glyasperin L

>  <PubChem ID>  (379) 
101664571

>  <CDB ID>  (379) 
CDB0379

>  <Smiles>  (379) 
CC1(C=CC2=C(O1)C=CC(=C2O)C3=CC4=C(C=C(C=C4OC)O)OC3=O)C

>  <Chemical class>  (379) 
5,7-Dioxygenated Coumarins

>  <Natural source>  (379) 
Glycyrrhiza aspera

>  <Molecular Formula>  (379) 
C21H18O6

>  <InChI-Key>  (379) 
RVMQSBYTVFSIMB-UHFFFAOYSA-N

>  <Total Molweight>  (379) 
366.368

>  <cLogP>  (379) 
3.0179

>  <cLogS>  (379) 
-4.012

>  <H-Acceptors>  (379) 
6

>  <H-Donors>  (379) 
2

>  <Rotatable Bonds>  (379) 
2

>  <Polar Surface Area>  (379) 
85.22

$$$$
CDB0380
     RDKit          3D

 29 31  0  0  0  0  0  0  0  0999 V2000
   -4.1589   -0.7400    0.0963 C   0  0  0  0  0  0  0  0  0  0  0  0
   -3.4410   -1.0445   -1.0598 C   0  0  0  0  0  0  0  0  0  0  0  0
   -2.1518   -0.5383   -1.2357 C   0  0  0  0  0  0  0  0  0  0  0  0
   -1.5727    0.2746   -0.2523 C   0  0  0  0  0  0  0  0  0  0  0  0
   -2.3007    0.5770    0.9061 C   0  0  0  0  0  0  0  0  0  0  0  0
   -3.5897    0.0692    1.0790 C   0  0  0  0  0  0  0  0  0  0  0  0
   -0.2215    0.8366   -0.4510 C   0  0  0  0  0  0  0  0  0  0  0  0
   -0.1995    2.0287   -1.0702 C   0  0  0  0  0  0  0  0  0  0  0  0
    1.0307    2.7687   -1.3700 C   0  0  0  0  0  0  0  0  0  0  0  0
    0.9873    3.8538   -1.9380 O   0  0  0  0  0  0  0  0  0  0  0  0
    2.2206    2.1841   -0.9830 O   0  0  0  0  0  0  0  0  0  0  0  0
    2.2414    0.9356   -0.3314 C   0  0  0  0  0  0  0  0  0  0  0  0
    3.5063    0.4530    0.0078 C   0  0  0  0  0  0  0  0  0  0  0  0
    3.6080   -0.7696    0.6514 C   0  0  0  0  0  0  0  0  0  0  0  0
    2.4694   -1.5073    0.9564 C   0  0  0  0  0  0  0  0  0  0  0  0
    1.2084   -1.0044    0.6070 C   0  0  0  0  0  0  0  0  0  0  0  0
    1.0659    0.2326   -0.0471 C   0  0  0  0  0  0  0  0  0  0  0  0
    0.1032   -1.7488    0.9178 O   0  0  0  0  0  0  0  0  0  0  0  0
    4.8555   -1.2163    0.9707 O   0  0  0  0  0  0  0  0  0  0  0  0
   -5.1623   -1.1351    0.2323 H   0  0  0  0  0  0  0  0  0  0  0  0
   -3.8841   -1.6771   -1.8244 H   0  0  0  0  0  0  0  0  0  0  0  0
   -1.5994   -0.7848   -2.1391 H   0  0  0  0  0  0  0  0  0  0  0  0
   -1.8649    1.2039    1.6801 H   0  0  0  0  0  0  0  0  0  0  0  0
   -4.1486    0.3044    1.9809 H   0  0  0  0  0  0  0  0  0  0  0  0
   -1.1071    2.5288   -1.3936 H   0  0  0  0  0  0  0  0  0  0  0  0
    4.3978    1.0262   -0.2288 H   0  0  0  0  0  0  0  0  0  0  0  0
    2.5585   -2.4634    1.4605 H   0  0  0  0  0  0  0  0  0  0  0  0
    0.3626   -2.5702    1.3635 H   0  0  0  0  0  0  0  0  0  0  0  0
    4.7868   -2.0774    1.4143 H   0  0  0  0  0  0  0  0  0  0  0  0
  1  2  2  0
  2  3  1  0
  3  4  2  0
  4  5  1  0
  5  6  2  0
  4  7  1  0
  7  8  2  0
  8  9  1  0
  9 10  2  0
  9 11  1  0
 11 12  1  0
 12 13  2  0
 13 14  1  0
 14 15  2  0
 15 16  1  0
 16 17  2  0
 16 18  1  0
 14 19  1  0
  6  1  1  0
 17  7  1  0
 17 12  1  0
  1 20  1  0
  2 21  1  0
  3 22  1  0
  5 23  1  0
  6 24  1  0
  8 25  1  0
 13 26  1  0
 15 27  1  0
 18 28  1  0
 19 29  1  0
M  END
>  <Name>  (380) 
Serratin

>  <PubChem ID>  (380) 
5398649

>  <CDB ID>  (380) 
CDB0380

>  <Smiles>  (380) 
C1=CC=C(C=C1)C2=CC(=O)OC3=CC(=CC(=C23)O)O

>  <Chemical class>  (380) 
5,7-Dioxygenated Coumarins

>  <Natural source>  (380) 
Passifiora serratodigitata

>  <Molecular Formula>  (380) 
C15H10O4

>  <InChI-Key>  (380) 
HUQKUJNSVHEHIH-UHFFFAOYSA-N

>  <Total Molweight>  (380) 
254.24

>  <cLogP>  (380) 
2.3041

>  <cLogS>  (380) 
-2.983

>  <H-Acceptors>  (380) 
4

>  <H-Donors>  (380) 
2

>  <Rotatable Bonds>  (380) 
1

>  <Polar Surface Area>  (380) 
66.76

$$$$
CDB0381
     RDKit          3D

 38 39  0  0  0  0  0  0  0  0999 V2000
    3.9893   -0.3307    1.8577 C   0  0  0  0  0  0  0  0  0  0  0  0
    3.2058   -0.5735    0.5934 C   0  0  0  0  0  0  0  0  0  0  0  0
    2.3005    0.3304    0.1677 C   0  0  0  0  0  0  0  0  0  0  0  0
    1.4296    0.2819   -1.0620 C   0  0  0  0  0  0  0  0  0  0  0  0
   -0.0470    0.4597   -0.7492 C   0  0  0  0  0  0  0  0  0  0  0  0
   -0.5945    1.7548   -0.5992 C   0  0  0  0  0  0  0  0  0  0  0  0
   -1.9587    1.9072   -0.3438 C   0  0  0  0  0  0  0  0  0  0  0  0
   -2.7740    0.7794   -0.2601 C   0  0  0  0  0  0  0  0  0  0  0  0
   -2.2728   -0.5108   -0.4018 C   0  0  0  0  0  0  0  0  0  0  0  0
   -0.8933   -0.6633   -0.6042 C   0  0  0  0  0  0  0  0  0  0  0  0
   -0.3564   -1.9234   -0.7354 O   0  0  0  0  0  0  0  0  0  0  0  0
   -0.0513   -2.4694    0.5514 C   0  0  0  0  0  0  0  0  0  0  0  0
   -3.2167   -1.6223   -0.3595 C   0  0  0  0  0  0  0  0  0  0  0  0
   -4.5151   -1.3934   -0.1426 C   0  0  0  0  0  0  0  0  0  0  0  0
   -5.0521   -0.0385    0.0587 C   0  0  0  0  0  0  0  0  0  0  0  0
   -6.2440    0.1385    0.2808 O   0  0  0  0  0  0  0  0  0  0  0  0
   -4.1465    1.0093   -0.0232 O   0  0  0  0  0  0  0  0  0  0  0  0
    0.2875    2.7982   -0.7206 O   0  0  0  0  0  0  0  0  0  0  0  0
   -0.2278    4.1181   -0.5988 C   0  0  0  0  0  0  0  0  0  0  0  0
    3.5425   -1.8652   -0.0984 C   0  0  0  0  0  0  0  0  0  0  0  0
    5.0620   -0.3043    1.6398 H   0  0  0  0  0  0  0  0  0  0  0  0
    3.7999   -1.1316    2.5799 H   0  0  0  0  0  0  0  0  0  0  0  0
    3.7243    0.6176    2.3370 H   0  0  0  0  0  0  0  0  0  0  0  0
    2.1680    1.2387    0.7568 H   0  0  0  0  0  0  0  0  0  0  0  0
    1.5704   -0.6357   -1.6396 H   0  0  0  0  0  0  0  0  0  0  0  0
    1.7523    1.0780   -1.7454 H   0  0  0  0  0  0  0  0  0  0  0  0
   -2.4194    2.8810   -0.2202 H   0  0  0  0  0  0  0  0  0  0  0  0
   -0.9525   -2.8813    1.0158 H   0  0  0  0  0  0  0  0  0  0  0  0
    0.6574   -3.2900    0.4060 H   0  0  0  0  0  0  0  0  0  0  0  0
    0.4074   -1.7363    1.2232 H   0  0  0  0  0  0  0  0  0  0  0  0
   -2.8507   -2.6294   -0.5268 H   0  0  0  0  0  0  0  0  0  0  0  0
   -5.2396   -2.1980   -0.1118 H   0  0  0  0  0  0  0  0  0  0  0  0
   -0.6461    4.2873    0.3988 H   0  0  0  0  0  0  0  0  0  0  0  0
    0.6053    4.8150   -0.7322 H   0  0  0  0  0  0  0  0  0  0  0  0
   -0.9653    4.3280   -1.3803 H   0  0  0  0  0  0  0  0  0  0  0  0
    2.9677   -2.0381   -1.0099 H   0  0  0  0  0  0  0  0  0  0  0  0
    3.3519   -2.7101    0.5719 H   0  0  0  0  0  0  0  0  0  0  0  0
    4.6023   -1.8778   -0.3738 H   0  0  0  0  0  0  0  0  0  0  0  0
  1  2  1  0
  2  3  2  3
  3  4  1  0
  4  5  1  0
  5  6  2  0
  6  7  1  0
  7  8  2  0
  8  9  1  0
  9 10  2  0
 10 11  1  0
 11 12  1  0
  9 13  1  0
 13 14  2  0
 14 15  1  0
 15 16  2  0
 15 17  1  0
  6 18  1  0
 18 19  1  0
  2 20  1  0
 10  5  1  0
 17  8  1  0
  1 21  1  0
  1 22  1  0
  1 23  1  0
  3 24  1  0
  4 25  1  0
  4 26  1  0
  7 27  1  0
 12 28  1  0
 12 29  1  0
 12 30  1  0
 13 31  1  0
 14 32  1  0
 19 33  1  0
 19 34  1  0
 19 35  1  0
 20 36  1  0
 20 37  1  0
 20 38  1  0
M  END
>  <Name>  (381) 
Toddaculin

>  <PubChem ID>  (381) 
5321960

>  <CDB ID>  (381) 
CDB0381

>  <Smiles>  (381) 
CC(=CCC1=C(C=C2C(=C1OC)C=CC(=O)O2)OC)C

>  <Chemical class>  (381) 
5,7-Dioxygenated Coumarins

>  <Natural source>  (381) 
Toddalia aculeata

>  <Molecular Formula>  (381) 
C16H18O4

>  <InChI-Key>  (381) 
KRQHZFHWEAJPNO-UHFFFAOYSA-N

>  <Total Molweight>  (381) 
274.315

>  <cLogP>  (381) 
3.3799

>  <cLogS>  (381) 
-3.345

>  <H-Acceptors>  (381) 
4

>  <H-Donors>  (381) 
0

>  <Rotatable Bonds>  (381) 
4

>  <Polar Surface Area>  (381) 
44.76

$$$$
CDB0382
     RDKit          3D

 39 40  0  0  0  0  0  0  0  0999 V2000
   -2.1375   -0.1397    2.0649 C   0  0  0  0  0  0  0  0  0  0  0  0
   -2.6464   -0.6201    0.9163 C   0  0  0  0  0  0  0  0  0  0  0  0
   -3.1974   -2.0169    0.8365 C   0  0  0  0  0  0  0  0  0  0  0  0
   -2.7674    0.1961   -0.3542 C   0  0  1  0  0  0  0  0  0  0  0  0
   -3.0683    1.5520   -0.0264 O   0  0  0  0  0  0  0  0  0  0  0  0
   -1.5884    0.0656   -1.3524 C   0  0  0  0  0  0  0  0  0  0  0  0
   -0.1747    0.3191   -0.8330 C   0  0  0  0  0  0  0  0  0  0  0  0
    0.2520    1.6292   -0.5135 C   0  0  0  0  0  0  0  0  0  0  0  0
   -0.6845    2.6216   -0.6533 O   0  0  0  0  0  0  0  0  0  0  0  0
   -0.2303    3.9707   -0.5842 C   0  0  0  0  0  0  0  0  0  0  0  0
    1.5591    1.8569   -0.0799 C   0  0  0  0  0  0  0  0  0  0  0  0
    2.4604    0.7972   -0.0278 C   0  0  0  0  0  0  0  0  0  0  0  0
    3.7727    1.1092    0.3880 O   0  0  0  0  0  0  0  0  0  0  0  0
    4.7654    0.1421    0.4374 C   0  0  0  0  0  0  0  0  0  0  0  0
    5.9023    0.3847    0.8238 O   0  0  0  0  0  0  0  0  0  0  0  0
    4.3935   -1.2061   -0.0174 C   0  0  0  0  0  0  0  0  0  0  0  0
    3.1508   -1.5123   -0.4016 C   0  0  0  0  0  0  0  0  0  0  0  0
    2.0990   -0.5002   -0.3756 C   0  0  0  0  0  0  0  0  0  0  0  0
    0.7597   -0.7412   -0.7289 C   0  0  0  0  0  0  0  0  0  0  0  0
    0.3498   -2.0114   -1.0646 O   0  0  0  0  0  0  0  0  0  0  0  0
    0.1905   -2.8282    0.0991 C   0  0  0  0  0  0  0  0  0  0  0  0
   -1.7671    0.8785    2.1356 H   0  0  0  0  0  0  0  0  0  0  0  0
   -2.0920   -0.7417    2.9666 H   0  0  0  0  0  0  0  0  0  0  0  0
   -2.7696   -2.5525   -0.0158 H   0  0  0  0  0  0  0  0  0  0  0  0
   -4.2846   -1.9864    0.7098 H   0  0  0  0  0  0  0  0  0  0  0  0
   -2.9799   -2.5984    1.7386 H   0  0  0  0  0  0  0  0  0  0  0  0
   -3.6660   -0.1466   -0.8830 H   0  0  0  0  0  0  0  0  0  0  0  0
   -2.2300    2.0458   -0.0747 H   0  0  0  0  0  0  0  0  0  0  0  0
   -1.6389   -0.9318   -1.8053 H   0  0  0  0  0  0  0  0  0  0  0  0
   -1.7545    0.7625   -2.1857 H   0  0  0  0  0  0  0  0  0  0  0  0
   -1.0751    4.6187   -0.8366 H   0  0  0  0  0  0  0  0  0  0  0  0
    0.5656    4.1613   -1.3118 H   0  0  0  0  0  0  0  0  0  0  0  0
    0.0896    4.2221    0.4320 H   0  0  0  0  0  0  0  0  0  0  0  0
    1.9126    2.8424    0.2026 H   0  0  0  0  0  0  0  0  0  0  0  0
    5.1936   -1.9360   -0.0351 H   0  0  0  0  0  0  0  0  0  0  0  0
    2.9190   -2.5053   -0.7688 H   0  0  0  0  0  0  0  0  0  0  0  0
   -0.5926   -3.5618   -0.1127 H   0  0  0  0  0  0  0  0  0  0  0  0
    1.1106   -3.3821    0.3042 H   0  0  0  0  0  0  0  0  0  0  0  0
   -0.1011   -2.2570    0.9867 H   0  0  0  0  0  0  0  0  0  0  0  0
  1  2  2  0
  2  3  1  0
  2  4  1  0
  4  5  1  0
  4  6  1  0
  6  7  1  0
  7  8  2  0
  8  9  1  0
  9 10  1  0
  8 11  1  0
 11 12  2  0
 12 13  1  0
 13 14  1  0
 14 15  2  0
 14 16  1  0
 16 17  2  0
 17 18  1  0
 18 19  2  0
 19 20  1  0
 20 21  1  0
 19  7  1  0
 18 12  1  0
  1 22  1  0
  1 23  1  0
  3 24  1  0
  3 25  1  0
  3 26  1  0
  4 27  1  6
  5 28  1  0
  6 29  1  0
  6 30  1  0
 10 31  1  0
 10 32  1  0
 10 33  1  0
 11 34  1  0
 16 35  1  0
 17 36  1  0
 21 37  1  0
 21 38  1  0
 21 39  1  0
M  END
>  <Name>  (382) 
Toddanol

>  <PubChem ID>  (382) 
101628359

>  <CDB ID>  (382) 
CDB0382

>  <Smiles>  (382) 
C=C(C)[C@@H](O)CC1=C(OC)C=C2OC(=O)C=CC2=C1OC

>  <Chemical class>  (382) 
5,7-Dioxygenated Coumarins

>  <Natural source>  (382) 
Toddalia asiatica

>  <Molecular Formula>  (382) 
C16H18O5

>  <InChI-Key>  (382) 
RUCHZOCSENTTRO-LBPRGKRZSA-N

>  <Total Molweight>  (382) 
290.314

>  <cLogP>  (382) 
2.4248

>  <cLogS>  (382) 
-3.113

>  <H-Acceptors>  (382) 
5

>  <H-Donors>  (382) 
1

>  <Rotatable Bonds>  (382) 
5

>  <Polar Surface Area>  (382) 
64.99

$$$$
CDB0383
     RDKit          3D

 39 41  0  0  0  0  0  0  0  0999 V2000
   -0.8609    2.1826    2.5361 C   0  0  0  0  0  0  0  0  0  0  0  0
   -0.5762    0.7836    2.4951 O   0  0  0  0  0  0  0  0  0  0  0  0
    0.4628    0.5023    1.6457 C   0  0  0  0  0  0  0  0  0  0  0  0
    0.2227   -0.3301    0.5377 C   0  0  0  0  0  0  0  0  0  0  0  0
   -1.1829   -0.7983    0.2221 C   0  0  0  0  0  0  0  0  0  0  0  0
   -1.8495    0.1446   -0.7340 C   0  0  2  0  0  0  0  0  0  0  0  0
   -2.6987    1.1349   -0.1340 O   0  0  0  0  0  0  0  0  0  0  0  0
   -3.3534    0.1622   -0.9623 C   0  0  0  0  0  0  0  0  0  0  0  0
   -4.2708   -0.7537   -0.2143 C   0  0  0  0  0  0  0  0  0  0  0  0
   -3.8750    0.7203   -2.2502 C   0  0  0  0  0  0  0  0  0  0  0  0
    1.3084   -0.6535   -0.3041 C   0  0  0  0  0  0  0  0  0  0  0  0
    1.0805   -1.4461   -1.4061 O   0  0  0  0  0  0  0  0  0  0  0  0
    1.3692   -2.8139   -1.0985 C   0  0  0  0  0  0  0  0  0  0  0  0
    2.5890   -0.1210   -0.0776 C   0  0  0  0  0  0  0  0  0  0  0  0
    3.7240   -0.3338   -0.9690 C   0  0  0  0  0  0  0  0  0  0  0  0
    4.9179    0.1871   -0.6714 C   0  0  0  0  0  0  0  0  0  0  0  0
    5.1484    0.9865    0.5426 C   0  0  0  0  0  0  0  0  0  0  0  0
    6.2612    1.4305    0.7991 O   0  0  0  0  0  0  0  0  0  0  0  0
    4.0505    1.2089    1.3607 O   0  0  0  0  0  0  0  0  0  0  0  0
    2.7828    0.6736    1.0506 C   0  0  0  0  0  0  0  0  0  0  0  0
    1.7437    0.9791    1.9238 C   0  0  0  0  0  0  0  0  0  0  0  0
   -1.8686    2.3064    2.9438 H   0  0  0  0  0  0  0  0  0  0  0  0
   -0.1615    2.6971    3.2026 H   0  0  0  0  0  0  0  0  0  0  0  0
   -0.8410    2.6352    1.5380 H   0  0  0  0  0  0  0  0  0  0  0  0
   -1.7532   -0.9123    1.1505 H   0  0  0  0  0  0  0  0  0  0  0  0
   -1.1598   -1.7994   -0.2217 H   0  0  0  0  0  0  0  0  0  0  0  0
   -1.2140    0.4375   -1.5615 H   0  0  0  0  0  0  0  0  0  0  0  0
   -5.2931   -0.3610   -0.2171 H   0  0  0  0  0  0  0  0  0  0  0  0
   -4.2842   -1.7404   -0.6878 H   0  0  0  0  0  0  0  0  0  0  0  0
   -3.9782   -0.8805    0.8323 H   0  0  0  0  0  0  0  0  0  0  0  0
   -4.0661   -0.0886   -2.9625 H   0  0  0  0  0  0  0  0  0  0  0  0
   -3.1660    1.4155   -2.7123 H   0  0  0  0  0  0  0  0  0  0  0  0
   -4.8123    1.2611   -2.0837 H   0  0  0  0  0  0  0  0  0  0  0  0
    2.4431   -2.9685   -0.9526 H   0  0  0  0  0  0  0  0  0  0  0  0
    1.0534   -3.4204   -1.9525 H   0  0  0  0  0  0  0  0  0  0  0  0
    0.8180   -3.1575   -0.2162 H   0  0  0  0  0  0  0  0  0  0  0  0
    3.5777   -0.9036   -1.8801 H   0  0  0  0  0  0  0  0  0  0  0  0
    5.7775    0.0503   -1.3160 H   0  0  0  0  0  0  0  0  0  0  0  0
    1.9348    1.5833    2.8048 H   0  0  0  0  0  0  0  0  0  0  0  0
  1  2  1  0
  2  3  1  0
  3  4  2  0
  4  5  1  0
  5  6  1  0
  6  7  1  0
  7  8  1  0
  8  9  1  0
  8 10  1  0
  4 11  1  0
 11 12  1  0
 12 13  1  0
 11 14  2  0
 14 15  1  0
 15 16  2  0
 16 17  1  0
 17 18  2  0
 17 19  1  0
 19 20  1  0
 20 21  2  0
 21  3  1  0
  8  6  1  0
 20 14  1  0
  1 22  1  0
  1 23  1  0
  1 24  1  0
  5 25  1  0
  5 26  1  0
  6 27  1  6
  9 28  1  0
  9 29  1  0
  9 30  1  0
 10 31  1  0
 10 32  1  0
 10 33  1  0
 13 34  1  0
 13 35  1  0
 13 36  1  0
 15 37  1  0
 16 38  1  0
 21 39  1  0
M  END
>  <Name>  (383) 
Aculeatin

>  <PubChem ID>  (383) 
5316354

>  <CDB ID>  (383) 
CDB0383

>  <Smiles>  (383) 
COC1=C(C[C@@H]2OC2(C)C)C(OC)=C2C=CC(=O)OC2=C1

>  <Chemical class>  (383) 
5,7-Dioxygenated Coumarins

>  <Natural source>  (383) 
Toddalia aculeata

>  <Molecular Formula>  (383) 
C16H18O5

>  <InChI-Key>  (383) 
DZSSBQWTSOMKDI-ZDUSSCGKSA-N

>  <Total Molweight>  (383) 
290.314

>  <cLogP>  (383) 
1.9491

>  <cLogS>  (383) 
-3.241

>  <H-Acceptors>  (383) 
5

>  <H-Donors>  (383) 
0

>  <Rotatable Bonds>  (383) 
4

>  <Polar Surface Area>  (383) 
57.29

$$$$
CDB0384
     RDKit          3D

 39 40  0  0  0  0  0  0  0  0999 V2000
   -2.1375   -0.1397    2.0649 C   0  0  0  0  0  0  0  0  0  0  0  0
   -2.6464   -0.6201    0.9163 C   0  0  0  0  0  0  0  0  0  0  0  0
   -3.1974   -2.0169    0.8365 C   0  0  0  0  0  0  0  0  0  0  0  0
   -2.7674    0.1961   -0.3542 C   0  0  1  0  0  0  0  0  0  0  0  0
   -3.0683    1.5520   -0.0264 O   0  0  0  0  0  0  0  0  0  0  0  0
   -1.5884    0.0656   -1.3524 C   0  0  0  0  0  0  0  0  0  0  0  0
   -0.1747    0.3191   -0.8330 C   0  0  0  0  0  0  0  0  0  0  0  0
    0.2520    1.6292   -0.5135 C   0  0  0  0  0  0  0  0  0  0  0  0
   -0.6845    2.6216   -0.6533 O   0  0  0  0  0  0  0  0  0  0  0  0
   -0.2303    3.9707   -0.5842 C   0  0  0  0  0  0  0  0  0  0  0  0
    1.5591    1.8569   -0.0799 C   0  0  0  0  0  0  0  0  0  0  0  0
    2.4604    0.7972   -0.0278 C   0  0  0  0  0  0  0  0  0  0  0  0
    3.7727    1.1092    0.3880 O   0  0  0  0  0  0  0  0  0  0  0  0
    4.7654    0.1421    0.4374 C   0  0  0  0  0  0  0  0  0  0  0  0
    5.9023    0.3847    0.8238 O   0  0  0  0  0  0  0  0  0  0  0  0
    4.3935   -1.2061   -0.0174 C   0  0  0  0  0  0  0  0  0  0  0  0
    3.1508   -1.5123   -0.4016 C   0  0  0  0  0  0  0  0  0  0  0  0
    2.0990   -0.5002   -0.3756 C   0  0  0  0  0  0  0  0  0  0  0  0
    0.7597   -0.7412   -0.7289 C   0  0  0  0  0  0  0  0  0  0  0  0
    0.3498   -2.0114   -1.0646 O   0  0  0  0  0  0  0  0  0  0  0  0
    0.1905   -2.8282    0.0991 C   0  0  0  0  0  0  0  0  0  0  0  0
   -1.7671    0.8785    2.1356 H   0  0  0  0  0  0  0  0  0  0  0  0
   -2.0920   -0.7417    2.9666 H   0  0  0  0  0  0  0  0  0  0  0  0
   -2.7696   -2.5525   -0.0158 H   0  0  0  0  0  0  0  0  0  0  0  0
   -4.2846   -1.9864    0.7098 H   0  0  0  0  0  0  0  0  0  0  0  0
   -2.9799   -2.5984    1.7386 H   0  0  0  0  0  0  0  0  0  0  0  0
   -3.6660   -0.1466   -0.8830 H   0  0  0  0  0  0  0  0  0  0  0  0
   -2.2300    2.0458   -0.0747 H   0  0  0  0  0  0  0  0  0  0  0  0
   -1.6389   -0.9318   -1.8053 H   0  0  0  0  0  0  0  0  0  0  0  0
   -1.7545    0.7625   -2.1857 H   0  0  0  0  0  0  0  0  0  0  0  0
   -1.0751    4.6187   -0.8366 H   0  0  0  0  0  0  0  0  0  0  0  0
    0.5656    4.1613   -1.3118 H   0  0  0  0  0  0  0  0  0  0  0  0
    0.0896    4.2221    0.4320 H   0  0  0  0  0  0  0  0  0  0  0  0
    1.9126    2.8424    0.2026 H   0  0  0  0  0  0  0  0  0  0  0  0
    5.1936   -1.9360   -0.0351 H   0  0  0  0  0  0  0  0  0  0  0  0
    2.9190   -2.5053   -0.7688 H   0  0  0  0  0  0  0  0  0  0  0  0
   -0.5926   -3.5618   -0.1127 H   0  0  0  0  0  0  0  0  0  0  0  0
    1.1106   -3.3821    0.3042 H   0  0  0  0  0  0  0  0  0  0  0  0
   -0.1011   -2.2570    0.9867 H   0  0  0  0  0  0  0  0  0  0  0  0
  1  2  2  0
  2  3  1  0
  2  4  1  0
  4  5  1  0
  4  6  1  0
  6  7  1  0
  7  8  2  0
  8  9  1  0
  9 10  1  0
  8 11  1  0
 11 12  2  0
 12 13  1  0
 13 14  1  0
 14 15  2  0
 14 16  1  0
 16 17  2  0
 17 18  1  0
 18 19  2  0
 19 20  1  0
 20 21  1  0
 19  7  1  0
 18 12  1  0
  1 22  1  0
  1 23  1  0
  3 24  1  0
  3 25  1  0
  3 26  1  0
  4 27  1  6
  5 28  1  0
  6 29  1  0
  6 30  1  0
 10 31  1  0
 10 32  1  0
 10 33  1  0
 11 34  1  0
 16 35  1  0
 17 36  1  0
 21 37  1  0
 21 38  1  0
 21 39  1  0
M  END
>  <Name>  (384) 
Toddanone

>  <PubChem ID>  (384) 
15071017

>  <CDB ID>  (384) 
CDB0384

>  <Smiles>  (384) 
C=C(C)[C@@H](O)CC1=C(OC)C=C2OC(=O)C=CC2=C1OC

>  <Chemical class>  (384) 
5,7-Dioxygenated Coumarins

>  <Natural source>  (384) 
Toddalia asiatica

>  <Molecular Formula>  (384) 
C16H18O5

>  <InChI-Key>  (384) 
RUCHZOCSENTTRO-LBPRGKRZSA-N

>  <Total Molweight>  (384) 
290.314

>  <cLogP>  (384) 
2.4248

>  <cLogS>  (384) 
-3.113

>  <H-Acceptors>  (384) 
5

>  <H-Donors>  (384) 
1

>  <Rotatable Bonds>  (384) 
5

>  <Polar Surface Area>  (384) 
64.99

$$$$
CDB0385
     RDKit          3D

 42 43  0  0  0  0  0  0  0  0999 V2000
   -0.0439   -3.6037    0.2800 C   0  0  0  0  0  0  0  0  0  0  0  0
   -0.3171   -2.2167    0.4416 O   0  0  0  0  0  0  0  0  0  0  0  0
    0.7517   -1.3553    0.4307 C   0  0  0  0  0  0  0  0  0  0  0  0
    0.4366    0.0159    0.5735 C   0  0  0  0  0  0  0  0  0  0  0  0
   -1.0143    0.4403    0.7483 C   0  0  0  0  0  0  0  0  0  0  0  0
   -1.8269    0.3540   -0.5609 C   0  0  2  0  0  0  0  0  0  0  0  0
   -1.5854    1.5669   -1.3016 O   0  0  0  0  0  0  0  0  0  0  0  0
   -3.3638    0.2168   -0.3438 C   0  0  0  0  0  0  0  0  0  0  0  0
   -4.0994    0.2263   -1.6924 C   0  0  0  0  0  0  0  0  0  0  0  0
   -3.7536   -1.0512    0.4227 C   0  0  0  0  0  0  0  0  0  0  0  0
   -3.8276    1.3721    0.3754 O   0  0  0  0  0  0  0  0  0  0  0  0
    1.4816    0.9651    0.5679 C   0  0  0  0  0  0  0  0  0  0  0  0
    1.1727    2.2962    0.7150 O   0  0  0  0  0  0  0  0  0  0  0  0
    1.1169    2.9442   -0.5605 C   0  0  0  0  0  0  0  0  0  0  0  0
    2.8233    0.5652    0.4823 C   0  0  0  0  0  0  0  0  0  0  0  0
    3.9526    1.4848    0.5649 C   0  0  0  0  0  0  0  0  0  0  0  0
    5.2026    1.0253    0.4569 C   0  0  0  0  0  0  0  0  0  0  0  0
    5.5018   -0.4013    0.2567 C   0  0  0  0  0  0  0  0  0  0  0  0
    6.6577   -0.7909    0.1413 O   0  0  0  0  0  0  0  0  0  0  0  0
    4.4177   -1.2658    0.2150 O   0  0  0  0  0  0  0  0  0  0  0  0
    3.0931   -0.7920    0.3337 C   0  0  0  0  0  0  0  0  0  0  0  0
    2.0829   -1.7525    0.2991 C   0  0  0  0  0  0  0  0  0  0  0  0
   -0.9999   -4.1357    0.3009 H   0  0  0  0  0  0  0  0  0  0  0  0
    0.5666   -3.9841    1.1054 H   0  0  0  0  0  0  0  0  0  0  0  0
    0.4266   -3.8032   -0.6884 H   0  0  0  0  0  0  0  0  0  0  0  0
   -1.0653    1.4579    1.1533 H   0  0  0  0  0  0  0  0  0  0  0  0
   -1.4345   -0.2003    1.5302 H   0  0  0  0  0  0  0  0  0  0  0  0
   -1.4804   -0.4739   -1.1893 H   0  0  0  0  0  0  0  0  0  0  0  0
   -2.2065    2.2245   -0.9286 H   0  0  0  0  0  0  0  0  0  0  0  0
   -3.9378    1.1645   -2.2345 H   0  0  0  0  0  0  0  0  0  0  0  0
   -3.7789   -0.6046   -2.3293 H   0  0  0  0  0  0  0  0  0  0  0  0
   -5.1830    0.1498   -1.5442 H   0  0  0  0  0  0  0  0  0  0  0  0
   -3.3978   -1.0348    1.4570 H   0  0  0  0  0  0  0  0  0  0  0  0
   -4.8443   -1.1403    0.4911 H   0  0  0  0  0  0  0  0  0  0  0  0
   -3.3663   -1.9498   -0.0682 H   0  0  0  0  0  0  0  0  0  0  0  0
   -3.6419    1.2378    1.3214 H   0  0  0  0  0  0  0  0  0  0  0  0
    2.0273    3.5341   -0.7034 H   0  0  0  0  0  0  0  0  0  0  0  0
    0.2657    3.6315   -0.5530 H   0  0  0  0  0  0  0  0  0  0  0  0
    1.0002    2.2519   -1.4026 H   0  0  0  0  0  0  0  0  0  0  0  0
    3.7614    2.5388    0.7328 H   0  0  0  0  0  0  0  0  0  0  0  0
    6.0603    1.6837    0.5191 H   0  0  0  0  0  0  0  0  0  0  0  0
    2.3696   -2.7918    0.1843 H   0  0  0  0  0  0  0  0  0  0  0  0
  1  2  1  0
  2  3  1  0
  3  4  2  0
  4  5  1  0
  5  6  1  0
  6  7  1  0
  6  8  1  0
  8  9  1  0
  8 10  1  0
  8 11  1  0
  4 12  1  0
 12 13  1  0
 13 14  1  0
 12 15  2  0
 15 16  1  0
 16 17  2  0
 17 18  1  0
 18 19  2  0
 18 20  1  0
 20 21  1  0
 21 22  2  0
 22  3  1  0
 21 15  1  0
  1 23  1  0
  1 24  1  0
  1 25  1  0
  5 26  1  0
  5 27  1  0
  6 28  1  6
  7 29  1  0
  9 30  1  0
  9 31  1  0
  9 32  1  0
 10 33  1  0
 10 34  1  0
 10 35  1  0
 11 36  1  0
 14 37  1  0
 14 38  1  0
 14 39  1  0
 16 40  1  0
 17 41  1  0
 22 42  1  0
M  END
>  <Name>  (385) 
Toddalolactone

>  <PubChem ID>  (385) 
5321961

>  <CDB ID>  (385) 
CDB0385

>  <Smiles>  (385) 
COC1=C(C[C@H](O)C(C)(C)O)C(OC)=C2C=CC(=O)OC2=C1

>  <Chemical class>  (385) 
5,7-Dioxygenated Coumarins

>  <Natural source>  (385) 
Toddalia aculeata

>  <Molecular Formula>  (385) 
C16H20O6

>  <InChI-Key>  (385) 
GLWPLQBQHWYKRK-ZDUSSCGKSA-N

>  <Total Molweight>  (385) 
308.329

>  <cLogP>  (385) 
1.3627

>  <cLogS>  (385) 
-2.76

>  <H-Acceptors>  (385) 
6

>  <H-Donors>  (385) 
2

>  <Rotatable Bonds>  (385) 
5

>  <Polar Surface Area>  (385) 
85.22

$$$$
CDB0386
     RDKit          3D

 33 35  0  0  0  0  0  0  0  0999 V2000
   -3.1905    1.3334    0.6832 C   0  0  0  0  0  0  0  0  0  0  0  0
   -3.2256   -0.0828    0.0928 C   0  0  0  0  0  0  0  0  0  0  0  0
   -3.9961   -0.9958    1.0559 C   0  0  0  0  0  0  0  0  0  0  0  0
   -1.8142   -0.6678   -0.1663 C   0  0  0  0  0  0  0  0  0  0  0  0
   -1.0300    0.0280   -1.2950 C   0  0  0  0  0  0  0  0  0  0  0  0
    0.3389   -0.0704   -0.7362 C   0  0  0  0  0  0  0  0  0  0  0  0
    0.2638   -0.4269    0.5999 C   0  0  0  0  0  0  0  0  0  0  0  0
   -1.0128   -0.6336    1.0479 O   0  0  0  0  0  0  0  0  0  0  0  0
    1.3861   -0.5309    1.3892 C   0  0  0  0  0  0  0  0  0  0  0  0
    2.6160   -0.2824    0.7781 C   0  0  0  0  0  0  0  0  0  0  0  0
    2.7352    0.0728   -0.5795 C   0  0  0  0  0  0  0  0  0  0  0  0
    1.5594    0.1969   -1.3361 C   0  0  0  0  0  0  0  0  0  0  0  0
    1.5266    0.5789   -2.6454 O   0  0  0  0  0  0  0  0  0  0  0  0
    4.0814    0.2716   -1.1099 C   0  0  0  0  0  0  0  0  0  0  0  0
    5.1452    0.1511   -0.3091 C   0  0  0  0  0  0  0  0  0  0  0  0
    5.0330   -0.1820    1.1192 C   0  0  0  0  0  0  0  0  0  0  0  0
    6.0317   -0.2627    1.8239 O   0  0  0  0  0  0  0  0  0  0  0  0
    3.7549   -0.4011    1.6059 O   0  0  0  0  0  0  0  0  0  0  0  0
   -3.9708   -0.0579   -1.1324 O   0  0  0  0  0  0  0  0  0  0  0  0
   -2.7048    2.0425    0.0057 H   0  0  0  0  0  0  0  0  0  0  0  0
   -4.2083    1.7122    0.8340 H   0  0  0  0  0  0  0  0  0  0  0  0
   -2.6692    1.3625    1.6452 H   0  0  0  0  0  0  0  0  0  0  0  0
   -5.0206   -0.6333    1.2007 H   0  0  0  0  0  0  0  0  0  0  0  0
   -3.5115   -1.0602    2.0354 H   0  0  0  0  0  0  0  0  0  0  0  0
   -4.0856   -2.0081    0.6453 H   0  0  0  0  0  0  0  0  0  0  0  0
   -1.9212   -1.7281   -0.4425 H   0  0  0  0  0  0  0  0  0  0  0  0
   -1.3023    1.0784   -1.4267 H   0  0  0  0  0  0  0  0  0  0  0  0
   -1.1465   -0.5022   -2.2447 H   0  0  0  0  0  0  0  0  0  0  0  0
    1.3158   -0.8008    2.4363 H   0  0  0  0  0  0  0  0  0  0  0  0
    2.3787    0.9668   -2.8950 H   0  0  0  0  0  0  0  0  0  0  0  0
    4.2283    0.4946   -2.1588 H   0  0  0  0  0  0  0  0  0  0  0  0
    6.1552    0.2861   -0.6778 H   0  0  0  0  0  0  0  0  0  0  0  0
   -3.7402    0.7513   -1.6203 H   0  0  0  0  0  0  0  0  0  0  0  0
  1  2  1  0
  2  3  1  0
  2  4  1  0
  4  5  1  0
  5  6  1  0
  6  7  2  0
  7  8  1  0
  7  9  1  0
  9 10  2  0
 10 11  1  0
 11 12  2  0
 12 13  1  0
 11 14  1  0
 14 15  2  0
 15 16  1  0
 16 17  2  0
 16 18  1  0
  2 19  1  0
  8  4  1  0
 12  6  1  0
 18 10  1  0
  1 20  1  0
  1 21  1  0
  1 22  1  0
  3 23  1  0
  3 24  1  0
  3 25  1  0
  4 26  1  0
  5 27  1  0
  5 28  1  0
  9 29  1  0
 13 30  1  0
 14 31  1  0
 15 32  1  0
 19 33  1  0
M  END
>  <Name>  (386) 
Celereoin

>  <PubChem ID>  (386) 
5315768

>  <CDB ID>  (386) 
CDB0386

>  <Smiles>  (386) 
CC(C)(C1CC2=C(O1)C=C3C(=C2O)C=CC(=O)O3)O

>  <Chemical class>  (386) 
5,7-Dioxygenated Coumarins

>  <Natural source>  (386) 
Apium graveolens

>  <Molecular Formula>  (386) 
C14H14O5

>  <InChI-Key>  (386) 
WCBFKVBQHXJRCX-LLVKDONJSA-N

>  <Total Molweight>  (386) 
262.26

>  <cLogP>  (386) 
1.5154

>  <cLogS>  (386) 
-2.799

>  <H-Acceptors>  (386) 
5

>  <H-Donors>  (386) 
2

>  <Rotatable Bonds>  (386) 
1

>  <Polar Surface Area>  (386) 
75.99

$$$$
CDB0387
     RDKit          3D

 54 57  0  0  0  0  0  0  0  0999 V2000
   -0.1873    0.0099    2.8237 C   0  0  0  0  0  0  0  0  0  0  0  0
    0.0095   -0.9671    1.6529 C   0  0  0  0  0  0  0  0  0  0  0  0
   -0.3444   -2.3974    2.0958 C   0  0  0  0  0  0  0  0  0  0  0  0
    1.5025   -0.9251    1.2068 C   0  0  0  0  0  0  0  0  0  0  0  0
    1.9465    0.4361    0.6343 C   0  0  0  0  0  0  0  0  0  0  0  0
    2.9014   -0.0218   -0.4022 C   0  0  0  0  0  0  0  0  0  0  0  0
    2.7178   -1.3819   -0.6097 C   0  0  0  0  0  0  0  0  0  0  0  0
    1.7627   -1.9426    0.1955 O   0  0  0  0  0  0  0  0  0  0  0  0
    3.4273   -2.0856   -1.5592 C   0  0  0  0  0  0  0  0  0  0  0  0
    4.3625   -1.3730   -2.3072 C   0  0  0  0  0  0  0  0  0  0  0  0
    4.5770    0.0021   -2.1259 C   0  0  0  0  0  0  0  0  0  0  0  0
    3.8217    0.6841   -1.1608 C   0  0  0  0  0  0  0  0  0  0  0  0
    4.0007    2.0269   -0.9913 O   0  0  0  0  0  0  0  0  0  0  0  0
    5.5730    0.6598   -2.9628 C   0  0  0  0  0  0  0  0  0  0  0  0
    6.2559   -0.0441   -3.8700 C   0  0  0  0  0  0  0  0  0  0  0  0
    6.0465   -1.4870   -4.0715 C   0  0  0  0  0  0  0  0  0  0  0  0
    6.6930   -2.1025   -4.9114 O   0  0  0  0  0  0  0  0  0  0  0  0
    5.0933   -2.1004   -3.2709 O   0  0  0  0  0  0  0  0  0  0  0  0
   -0.7741   -0.6151    0.4978 O   0  0  0  0  0  0  0  0  0  0  0  0
   -2.1707   -0.3740    0.6885 C   0  0  0  0  0  0  0  0  0  0  0  0
   -2.8420   -0.6219   -0.6793 C   0  0  0  0  0  0  0  0  0  0  0  0
   -4.3319   -0.2794   -0.6102 C   0  0  0  0  0  0  0  0  0  0  0  0
   -4.5293    1.1431   -0.0580 C   0  0  0  0  0  0  0  0  0  0  0  0
   -3.7297    1.3372    1.2483 C   0  0  0  0  0  0  0  0  0  0  0  0
   -2.3469    0.9904    1.0734 O   0  0  0  0  0  0  0  0  0  0  0  0
   -3.7774    2.7867    1.7475 C   0  0  0  0  0  0  0  0  0  0  0  0
   -5.1111    3.2627    1.8793 O   0  0  0  0  0  0  0  0  0  0  0  0
   -4.1379    2.1138   -1.0365 O   0  0  0  0  0  0  0  0  0  0  0  0
   -5.0042   -1.2327    0.2168 O   0  0  0  0  0  0  0  0  0  0  0  0
   -2.2121    0.2047   -1.6824 O   0  0  0  0  0  0  0  0  0  0  0  0
   -1.1979   -0.0600    3.2405 H   0  0  0  0  0  0  0  0  0  0  0  0
   -0.0474    1.0485    2.5059 H   0  0  0  0  0  0  0  0  0  0  0  0
    0.5151   -0.1997    3.6378 H   0  0  0  0  0  0  0  0  0  0  0  0
   -0.3509   -3.0859    1.2436 H   0  0  0  0  0  0  0  0  0  0  0  0
    0.3644   -2.7699    2.8432 H   0  0  0  0  0  0  0  0  0  0  0  0
   -1.3436   -2.4478    2.5405 H   0  0  0  0  0  0  0  0  0  0  0  0
    2.1426   -1.1827    2.0642 H   0  0  0  0  0  0  0  0  0  0  0  0
    1.1292    0.9907    0.1630 H   0  0  0  0  0  0  0  0  0  0  0  0
    2.4139    1.0550    1.4056 H   0  0  0  0  0  0  0  0  0  0  0  0
    3.2665   -3.1460   -1.7127 H   0  0  0  0  0  0  0  0  0  0  0  0
    3.3489    2.3586   -0.3527 H   0  0  0  0  0  0  0  0  0  0  0  0
    5.7432    1.7233   -2.8314 H   0  0  0  0  0  0  0  0  0  0  0  0
    7.0016    0.4177   -4.5053 H   0  0  0  0  0  0  0  0  0  0  0  0
   -2.5926   -1.0400    1.4482 H   0  0  0  0  0  0  0  0  0  0  0  0
   -2.6923   -1.6660   -0.9773 H   0  0  0  0  0  0  0  0  0  0  0  0
   -4.7558   -0.3407   -1.6202 H   0  0  0  0  0  0  0  0  0  0  0  0
   -5.5935    1.3071    0.1464 H   0  0  0  0  0  0  0  0  0  0  0  0
   -4.1571    0.6905    2.0259 H   0  0  0  0  0  0  0  0  0  0  0  0
   -3.2162    3.4607    1.0896 H   0  0  0  0  0  0  0  0  0  0  0  0
   -3.2954    2.8500    2.7295 H   0  0  0  0  0  0  0  0  0  0  0  0
   -5.3805    3.5634    0.9906 H   0  0  0  0  0  0  0  0  0  0  0  0
   -3.2828    1.8052   -1.4123 H   0  0  0  0  0  0  0  0  0  0  0  0
   -5.9601   -1.1350    0.0484 H   0  0  0  0  0  0  0  0  0  0  0  0
   -1.2517    0.0969   -1.5147 H   0  0  0  0  0  0  0  0  0  0  0  0
  1  2  1  0
  2  3  1  0
  2  4  1  0
  4  5  1  0
  5  6  1  0
  6  7  2  0
  7  8  1  0
  7  9  1  0
  9 10  2  0
 10 11  1  0
 11 12  2  0
 12 13  1  0
 11 14  1  0
 14 15  2  0
 15 16  1  0
 16 17  2  0
 16 18  1  0
  2 19  1  0
 19 20  1  0
 20 21  1  0
 21 22  1  0
 22 23  1  0
 23 24  1  0
 24 25  1  0
 24 26  1  0
 26 27  1  0
 23 28  1  0
 22 29  1  0
 21 30  1  0
  8  4  1  0
 12  6  1  0
 18 10  1  0
 25 20  1  0
  1 31  1  0
  1 32  1  0
  1 33  1  0
  3 34  1  0
  3 35  1  0
  3 36  1  0
  4 37  1  0
  5 38  1  0
  5 39  1  0
  9 40  1  0
 13 41  1  0
 14 42  1  0
 15 43  1  0
 20 44  1  0
 21 45  1  0
 22 46  1  0
 23 47  1  0
 24 48  1  0
 26 49  1  0
 26 50  1  0
 27 51  1  0
 28 52  1  0
 29 53  1  0
 30 54  1  0
M  END
>  <Name>  (387) 
Celereoside

>  <PubChem ID>  (387) 
73989751

>  <CDB ID>  (387) 
CDB0387

>  <Smiles>  (387) 
CC(C)(C1CC2=C(O1)C=C3C(=C2O)C=CC(=O)O3)OC4C(C(C(C(O4)CO)O)O)O

>  <Chemical class>  (387) 
5,7-Dioxygenated Coumarins

>  <Natural source>  (387) 
Apium graveolens

>  <Molecular Formula>  (387) 
C20H24O10

>  <InChI-Key>  (387) 
JMWIRXQFQXREAB-UHFFFAOYSA-N

>  <Total Molweight>  (387) 
424.401

>  <cLogP>  (387) 
-0.3217

>  <cLogS>  (387) 
-2.499

>  <H-Acceptors>  (387) 
10

>  <H-Donors>  (387) 
5

>  <Rotatable Bonds>  (387) 
4

>  <Polar Surface Area>  (387) 
155.14

$$$$
CDB0388
     RDKit          3D

 21 23  0  0  0  0  0  0  0  0999 V2000
   -2.0822    0.8641    0.6489 C   0  0  0  0  0  0  0  0  0  0  0  0
   -3.1877    0.1282    0.4963 C   0  0  0  0  0  0  0  0  0  0  0  0
   -3.1676   -1.2231   -0.0827 C   0  0  0  0  0  0  0  0  0  0  0  0
   -4.2041   -1.8581   -0.2323 O   0  0  0  0  0  0  0  0  0  0  0  0
   -1.9248   -1.7256   -0.4316 O   0  0  0  0  0  0  0  0  0  0  0  0
   -0.7405   -0.9652   -0.2755 C   0  0  0  0  0  0  0  0  0  0  0  0
    0.4395   -1.6073   -0.6634 C   0  0  0  0  0  0  0  0  0  0  0  0
    1.6013   -0.8622   -0.5092 C   0  0  0  0  0  0  0  0  0  0  0  0
    1.6369    0.4388   -0.0219 C   0  0  0  0  0  0  0  0  0  0  0  0
    3.0083    0.8150   -0.0386 C   0  0  0  0  0  0  0  0  0  0  0  0
    3.7050   -0.2671   -0.5236 C   0  0  0  0  0  0  0  0  0  0  0  0
    2.8581   -1.2892   -0.8134 O   0  0  0  0  0  0  0  0  0  0  0  0
    0.4250    1.0615    0.3417 C   0  0  0  0  0  0  0  0  0  0  0  0
   -0.7820    0.3409    0.2324 C   0  0  0  0  0  0  0  0  0  0  0  0
    0.4792    2.3553    0.7929 O   0  0  0  0  0  0  0  0  0  0  0  0
   -2.1536    1.8403    1.1118 H   0  0  0  0  0  0  0  0  0  0  0  0
   -4.1616    0.4894    0.8050 H   0  0  0  0  0  0  0  0  0  0  0  0
    0.4551   -2.6175   -1.0517 H   0  0  0  0  0  0  0  0  0  0  0  0
    3.4264    1.7627    0.2695 H   0  0  0  0  0  0  0  0  0  0  0  0
    4.7515   -0.4600   -0.7146 H   0  0  0  0  0  0  0  0  0  0  0  0
   -0.3822    2.7793    0.6600 H   0  0  0  0  0  0  0  0  0  0  0  0
  1  2  2  0
  2  3  1  0
  3  4  2  0
  3  5  1  0
  5  6  1  0
  6  7  1  0
  7  8  2  0
  8  9  1  0
  9 10  1  0
 10 11  2  0
 11 12  1  0
  9 13  2  0
 13 14  1  0
 13 15  1  0
 14  1  1  0
 14  6  2  0
 12  8  1  0
  1 16  1  0
  2 17  1  0
  7 18  1  0
 10 19  1  0
 11 20  1  0
 15 21  1  0
M  END
>  <Name>  (388) 
Bergaptol

>  <PubChem ID>  (388) 
5280371

>  <CDB ID>  (388) 
CDB0388

>  <Smiles>  (388) 
C1=CC(=O)OC2=CC3=C(C=CO3)C(=C21)O

>  <Chemical class>  (388) 
5,7-Dioxygenated Coumarins

>  <Natural source>  (388) 
Citrus bergamia

>  <Molecular Formula>  (388) 
C11H6O4

>  <InChI-Key>  (388) 
GIJHDGJRTUSBJR-UHFFFAOYSA-N

>  <Total Molweight>  (388) 
202.165

>  <cLogP>  (388) 
1.6033

>  <cLogS>  (388) 
-3.233

>  <H-Acceptors>  (388) 
4

>  <H-Donors>  (388) 
1

>  <Rotatable Bonds>  (388) 
0

>  <Polar Surface Area>  (388) 
59.67

$$$$
CDB0389
     RDKit          3D

 24 26  0  0  0  0  0  0  0  0999 V2000
   -1.3044    2.5395   -0.1971 C   0  0  0  0  0  0  0  0  0  0  0  0
   -0.9068    1.6928    0.8827 O   0  0  0  0  0  0  0  0  0  0  0  0
   -0.5008    0.4661    0.3968 C   0  0  0  0  0  0  0  0  0  0  0  0
    0.8746    0.1666    0.3277 C   0  0  0  0  0  0  0  0  0  0  0  0
    1.9094    1.1140    0.7295 C   0  0  0  0  0  0  0  0  0  0  0  0
    3.2000    0.7832    0.6285 C   0  0  0  0  0  0  0  0  0  0  0  0
    3.6417   -0.5237    0.1171 C   0  0  0  0  0  0  0  0  0  0  0  0
    4.8336   -0.7917    0.0249 O   0  0  0  0  0  0  0  0  0  0  0  0
    2.6459   -1.4180   -0.2479 O   0  0  0  0  0  0  0  0  0  0  0  0
    1.2743   -1.0873   -0.1434 C   0  0  0  0  0  0  0  0  0  0  0  0
    0.3731   -2.0813   -0.5341 C   0  0  0  0  0  0  0  0  0  0  0  0
   -0.9724   -1.7529   -0.4097 C   0  0  0  0  0  0  0  0  0  0  0  0
   -1.4433   -0.5260    0.0472 C   0  0  0  0  0  0  0  0  0  0  0  0
   -2.8615   -0.6357    0.0382 C   0  0  0  0  0  0  0  0  0  0  0  0
   -3.1542   -1.8949   -0.4314 C   0  0  0  0  0  0  0  0  0  0  0  0
   -2.0137   -2.5778   -0.7089 O   0  0  0  0  0  0  0  0  0  0  0  0
   -1.4831    3.5387    0.2113 H   0  0  0  0  0  0  0  0  0  0  0  0
   -2.2364    2.1899   -0.6523 H   0  0  0  0  0  0  0  0  0  0  0  0
   -0.5167    2.6197   -0.9548 H   0  0  0  0  0  0  0  0  0  0  0  0
    1.6117    2.0820    1.1187 H   0  0  0  0  0  0  0  0  0  0  0  0
    3.9884    1.4650    0.9232 H   0  0  0  0  0  0  0  0  0  0  0  0
    0.6938   -3.0506   -0.8939 H   0  0  0  0  0  0  0  0  0  0  0  0
   -3.5782    0.1141    0.3414 H   0  0  0  0  0  0  0  0  0  0  0  0
   -4.0750   -2.4318   -0.6137 H   0  0  0  0  0  0  0  0  0  0  0  0
  1  2  1  0
  2  3  1  0
  3  4  1  0
  4  5  1  0
  5  6  2  0
  6  7  1  0
  7  8  2  0
  7  9  1  0
  9 10  1  0
 10 11  1  0
 11 12  2  0
 12 13  1  0
 13 14  1  0
 14 15  2  0
 15 16  1  0
 13  3  2  0
 10  4  2  0
 16 12  1  0
  1 17  1  0
  1 18  1  0
  1 19  1  0
  5 20  1  0
  6 21  1  0
 11 22  1  0
 14 23  1  0
 15 24  1  0
M  END
>  <Name>  (389) 
Bergapten

>  <PubChem ID>  (389) 
2355

>  <CDB ID>  (389) 
CDB0389

>  <Smiles>  (389) 
COC1=C2C=CC(=O)OC2=CC3=C1C=CO3

>  <Chemical class>  (389) 
5,7-Dioxygenated Coumarins

>  <Natural source>  (389) 
Citrus bergamia

>  <Molecular Formula>  (389) 
C12H8O4

>  <InChI-Key>  (389) 
BGEBZHIAGXMEMV-UHFFFAOYSA-N

>  <Total Molweight>  (389) 
216.192

>  <cLogP>  (389) 
1.879

>  <cLogS>  (389) 
-3.547

>  <H-Acceptors>  (389) 
4

>  <H-Donors>  (389) 
0

>  <Rotatable Bonds>  (389) 
1

>  <Polar Surface Area>  (389) 
48.67

$$$$
CDB0390
     RDKit          3D

 34 36  0  0  0  0  0  0  0  0999 V2000
   -2.9032   -1.6190   -0.9707 C   0  0  0  0  0  0  0  0  0  0  0  0
   -3.2911   -0.5751    0.0399 C   0  0  0  0  0  0  0  0  0  0  0  0
   -2.5636    0.5145    0.3579 C   0  0  0  0  0  0  0  0  0  0  0  0
   -1.2473    0.9587   -0.2079 C   0  0  0  0  0  0  0  0  0  0  0  0
   -0.2996    0.9347    0.8673 O   0  0  0  0  0  0  0  0  0  0  0  0
    0.9837    0.8304    0.3723 C   0  0  0  0  0  0  0  0  0  0  0  0
    1.6462   -0.4117    0.4248 C   0  0  0  0  0  0  0  0  0  0  0  0
    1.0214   -1.6157    0.9628 C   0  0  0  0  0  0  0  0  0  0  0  0
    1.6903   -2.7721    0.9730 C   0  0  0  0  0  0  0  0  0  0  0  0
    3.0617   -2.8947    0.4541 C   0  0  0  0  0  0  0  0  0  0  0  0
    3.6443   -3.9724    0.4678 O   0  0  0  0  0  0  0  0  0  0  0  0
    3.6449   -1.7384   -0.0443 O   0  0  0  0  0  0  0  0  0  0  0  0
    2.9530   -0.5046   -0.0611 C   0  0  0  0  0  0  0  0  0  0  0  0
    3.6536    0.5851   -0.5859 C   0  0  0  0  0  0  0  0  0  0  0  0
    2.9682    1.7955   -0.5857 C   0  0  0  0  0  0  0  0  0  0  0  0
    1.6673    1.9622   -0.1215 C   0  0  0  0  0  0  0  0  0  0  0  0
    1.3777    3.3448   -0.2859 C   0  0  0  0  0  0  0  0  0  0  0  0
    2.4984    3.9155   -0.8432 C   0  0  0  0  0  0  0  0  0  0  0  0
    3.4665    2.9817   -1.0315 O   0  0  0  0  0  0  0  0  0  0  0  0
   -4.6087   -0.8395    0.7227 C   0  0  0  0  0  0  0  0  0  0  0  0
   -1.9167   -1.4584   -1.4096 H   0  0  0  0  0  0  0  0  0  0  0  0
   -2.8870   -2.6081   -0.5005 H   0  0  0  0  0  0  0  0  0  0  0  0
   -3.6311   -1.6386   -1.7885 H   0  0  0  0  0  0  0  0  0  0  0  0
   -2.9500    1.1887    1.1220 H   0  0  0  0  0  0  0  0  0  0  0  0
   -0.9240    0.3363   -1.0482 H   0  0  0  0  0  0  0  0  0  0  0  0
   -1.3522    1.9882   -0.5696 H   0  0  0  0  0  0  0  0  0  0  0  0
    0.0125   -1.5521    1.3581 H   0  0  0  0  0  0  0  0  0  0  0  0
    1.2526   -3.6803    1.3691 H   0  0  0  0  0  0  0  0  0  0  0  0
    4.6671    0.5026   -0.9570 H   0  0  0  0  0  0  0  0  0  0  0  0
    0.4641    3.8592   -0.0243 H   0  0  0  0  0  0  0  0  0  0  0  0
    2.7555    4.9210   -1.1468 H   0  0  0  0  0  0  0  0  0  0  0  0
   -4.8645   -0.0618    1.4500 H   0  0  0  0  0  0  0  0  0  0  0  0
   -4.5743   -1.7950    1.2563 H   0  0  0  0  0  0  0  0  0  0  0  0
   -5.4159   -0.8815   -0.0160 H   0  0  0  0  0  0  0  0  0  0  0  0
  1  2  1  0
  2  3  2  3
  3  4  1  0
  4  5  1  0
  5  6  1  0
  6  7  1  0
  7  8  1  0
  8  9  2  0
  9 10  1  0
 10 11  2  0
 10 12  1  0
 12 13  1  0
 13 14  1  0
 14 15  2  0
 15 16  1  0
 16 17  1  0
 17 18  2  0
 18 19  1  0
  2 20  1  0
 16  6  2  0
 13  7  2  0
 19 15  1  0
  1 21  1  0
  1 22  1  0
  1 23  1  0
  3 24  1  0
  4 25  1  0
  4 26  1  0
  8 27  1  0
  9 28  1  0
 14 29  1  0
 17 30  1  0
 18 31  1  0
 20 32  1  0
 20 33  1  0
 20 34  1  0
M  END
>  <Name>  (390) 
Isoimperatorin (Cnidin)

>  <PubChem ID>  (390) 
68081

>  <CDB ID>  (390) 
CDB0390

>  <Smiles>  (390) 
CC(=CCOC1=C2C=CC(=O)OC2=CC3=C1C=CO3)C

>  <Chemical class>  (390) 
5,7-Dioxygenated Coumarins

>  <Natural source>  (390) 
Imperatoria ostruthium

>  <Molecular Formula>  (390) 
C16H14O4

>  <InChI-Key>  (390) 
IGWDEVSBEKYORK-UHFFFAOYSA-N

>  <Total Molweight>  (390) 
270.283

>  <cLogP>  (390) 
3.5483

>  <cLogS>  (390) 
-4.283

>  <H-Acceptors>  (390) 
4

>  <H-Donors>  (390) 
0

>  <Rotatable Bonds>  (390) 
3

>  <Polar Surface Area>  (390) 
48.67

$$$$
CDB0391
     RDKit          3D

 37 39  0  0  0  0  0  0  0  0999 V2000
    3.6003    1.0832   -0.7596 C   0  0  0  0  0  0  0  0  0  0  0  0
    3.3838   -0.4323   -0.7135 C   0  0  0  0  0  0  0  0  0  0  0  0
    4.6630   -1.1085   -0.2076 C   0  0  0  0  0  0  0  0  0  0  0  0
    2.1756   -0.8467    0.1505 C   0  0  1  0  0  0  0  0  0  0  0  0
    2.3568   -0.3921    1.4966 O   0  0  0  0  0  0  0  0  0  0  0  0
    0.8377   -0.3119   -0.3809 C   0  0  0  0  0  0  0  0  0  0  0  0
   -0.2057   -0.8735    0.4410 O   0  0  0  0  0  0  0  0  0  0  0  0
   -1.4367   -0.4271    0.0078 C   0  0  0  0  0  0  0  0  0  0  0  0
   -2.1186   -1.1058   -1.0253 C   0  0  0  0  0  0  0  0  0  0  0  0
   -1.8620   -2.2341   -1.8523 C   0  0  0  0  0  0  0  0  0  0  0  0
   -2.9529   -2.3686   -2.6793 C   0  0  0  0  0  0  0  0  0  0  0  0
   -3.8717   -1.4029   -2.4185 O   0  0  0  0  0  0  0  0  0  0  0  0
   -3.3715   -0.6390   -1.4085 C   0  0  0  0  0  0  0  0  0  0  0  0
   -4.0135    0.4509   -0.8312 C   0  0  0  0  0  0  0  0  0  0  0  0
   -3.3210    1.0756    0.2100 C   0  0  0  0  0  0  0  0  0  0  0  0
   -2.0601    0.6615    0.6497 C   0  0  0  0  0  0  0  0  0  0  0  0
   -1.4470    1.3832    1.7604 C   0  0  0  0  0  0  0  0  0  0  0  0
   -2.0806    2.4164    2.3230 C   0  0  0  0  0  0  0  0  0  0  0  0
   -3.4018    2.8757    1.8669 C   0  0  0  0  0  0  0  0  0  0  0  0
   -3.9535    3.8311    2.3995 O   0  0  0  0  0  0  0  0  0  0  0  0
   -3.9748    2.1743    0.8161 O   0  0  0  0  0  0  0  0  0  0  0  0
    3.7562    1.4999    0.2409 H   0  0  0  0  0  0  0  0  0  0  0  0
    4.4803    1.3286   -1.3644 H   0  0  0  0  0  0  0  0  0  0  0  0
    2.7454    1.5936   -1.2131 H   0  0  0  0  0  0  0  0  0  0  0  0
    3.2079   -0.7810   -1.7393 H   0  0  0  0  0  0  0  0  0  0  0  0
    5.5081   -0.8793   -0.8656 H   0  0  0  0  0  0  0  0  0  0  0  0
    4.5449   -2.1971   -0.1871 H   0  0  0  0  0  0  0  0  0  0  0  0
    4.9240   -0.7754    0.8024 H   0  0  0  0  0  0  0  0  0  0  0  0
    2.1234   -1.9418    0.1981 H   0  0  0  0  0  0  0  0  0  0  0  0
    1.5781   -0.7073    1.9926 H   0  0  0  0  0  0  0  0  0  0  0  0
    0.7040   -0.6116   -1.4268 H   0  0  0  0  0  0  0  0  0  0  0  0
    0.8027    0.7805   -0.2966 H   0  0  0  0  0  0  0  0  0  0  0  0
   -0.9884   -2.8699   -1.8412 H   0  0  0  0  0  0  0  0  0  0  0  0
   -3.2180   -3.0641   -3.4638 H   0  0  0  0  0  0  0  0  0  0  0  0
   -4.9911    0.7788   -1.1607 H   0  0  0  0  0  0  0  0  0  0  0  0
   -0.4745    1.0676    2.1224 H   0  0  0  0  0  0  0  0  0  0  0  0
   -1.6490    2.9692    3.1487 H   0  0  0  0  0  0  0  0  0  0  0  0
  1  2  1  0
  2  3  1  0
  2  4  1  0
  4  5  1  0
  4  6  1  0
  6  7  1  0
  7  8  1  0
  8  9  2  0
  9 10  1  0
 10 11  2  0
 11 12  1  0
 12 13  1  0
 13 14  2  0
 14 15  1  0
 15 16  2  0
 16 17  1  0
 17 18  2  0
 18 19  1  0
 19 20  2  0
 19 21  1  0
 16  8  1  0
 13  9  1  0
 21 15  1  0
  1 22  1  0
  1 23  1  0
  1 24  1  0
  2 25  1  0
  3 26  1  0
  3 27  1  0
  3 28  1  0
  4 29  1  1
  5 30  1  0
  6 31  1  0
  6 32  1  0
 10 33  1  0
 11 34  1  0
 14 35  1  0
 17 36  1  0
 18 37  1  0
M  END
>  <Name>  (391) 
Pranferol

>  <PubChem ID>  (391) 
159751

>  <CDB ID>  (391) 
CDB0391

>  <Smiles>  (391) 
CC(C)[C@@H](O)COC1=C2C=COC2=CC2=C1C=CC(=O)O2

>  <Chemical class>  (391) 
5,7-Dioxygenated Coumarins

>  <Natural source>  (391) 
Prangos ferulaceae

>  <Molecular Formula>  (391) 
C16H16O5

>  <InChI-Key>  (391) 
JZRGHDSNRVNBNT-LBPRGKRZSA-N

>  <Total Molweight>  (391) 
288.298

>  <cLogP>  (391) 
2.3906

>  <cLogS>  (391) 
-4.148

>  <H-Acceptors>  (391) 
5

>  <H-Donors>  (391) 
1

>  <Rotatable Bonds>  (391) 
4

>  <Polar Surface Area>  (391) 
68.9

$$$$
CDB0392
     RDKit          3D

 35 37  0  0  0  0  0  0  0  0999 V2000
   -4.0670   -1.7854   -1.0481 C   0  0  0  0  0  0  0  0  0  0  0  0
   -3.5834   -0.7206   -0.3835 C   0  0  0  0  0  0  0  0  0  0  0  0
   -4.2188    0.6340   -0.5497 C   0  0  0  0  0  0  0  0  0  0  0  0
   -2.4215   -0.7888    0.5900 C   0  0  1  0  0  0  0  0  0  0  0  0
   -2.1179   -2.1543    0.9045 O   0  0  0  0  0  0  0  0  0  0  0  0
   -1.1469   -0.1199    0.0469 C   0  0  0  0  0  0  0  0  0  0  0  0
   -0.1279   -0.2317    1.0629 O   0  0  0  0  0  0  0  0  0  0  0  0
    1.0509    0.3207    0.6079 C   0  0  0  0  0  0  0  0  0  0  0  0
    1.2976    1.7018    0.7639 C   0  0  0  0  0  0  0  0  0  0  0  0
    0.5908    2.8140    1.2990 C   0  0  0  0  0  0  0  0  0  0  0  0
    1.4056    3.9102    1.1355 C   0  0  0  0  0  0  0  0  0  0  0  0
    2.5724    3.5531    0.5392 O   0  0  0  0  0  0  0  0  0  0  0  0
    2.5134    2.2106    0.3194 C   0  0  0  0  0  0  0  0  0  0  0  0
    3.5194    1.4460   -0.2605 C   0  0  0  0  0  0  0  0  0  0  0  0
    3.2507    0.0784   -0.3678 C   0  0  0  0  0  0  0  0  0  0  0  0
    2.0527   -0.5037    0.0577 C   0  0  0  0  0  0  0  0  0  0  0  0
    1.8981   -1.9474   -0.0909 C   0  0  0  0  0  0  0  0  0  0  0  0
    2.8789   -2.6772   -0.6303 C   0  0  0  0  0  0  0  0  0  0  0  0
    4.1422   -2.0826   -1.0941 C   0  0  0  0  0  0  0  0  0  0  0  0
    5.0202   -2.7786   -1.5893 O   0  0  0  0  0  0  0  0  0  0  0  0
    4.2765   -0.7105   -0.9396 O   0  0  0  0  0  0  0  0  0  0  0  0
   -3.6328   -2.7741   -0.9256 H   0  0  0  0  0  0  0  0  0  0  0  0
   -4.9113   -1.7056   -1.7255 H   0  0  0  0  0  0  0  0  0  0  0  0
   -5.1036    0.5976   -1.1944 H   0  0  0  0  0  0  0  0  0  0  0  0
   -4.5360    1.0267    0.4218 H   0  0  0  0  0  0  0  0  0  0  0  0
   -3.5136    1.3400   -0.9985 H   0  0  0  0  0  0  0  0  0  0  0  0
   -2.7139   -0.3207    1.5376 H   0  0  0  0  0  0  0  0  0  0  0  0
   -1.3682   -2.1162    1.5258 H   0  0  0  0  0  0  0  0  0  0  0  0
   -1.3338    0.9354   -0.1818 H   0  0  0  0  0  0  0  0  0  0  0  0
   -0.8129   -0.6388   -0.8610 H   0  0  0  0  0  0  0  0  0  0  0  0
   -0.3910    2.8116    1.7502 H   0  0  0  0  0  0  0  0  0  0  0  0
    1.3093    4.9593    1.3796 H   0  0  0  0  0  0  0  0  0  0  0  0
    4.4523    1.8846   -0.5910 H   0  0  0  0  0  0  0  0  0  0  0  0
    0.9793   -2.4177    0.2426 H   0  0  0  0  0  0  0  0  0  0  0  0
    2.7904   -3.7500   -0.7526 H   0  0  0  0  0  0  0  0  0  0  0  0
  1  2  2  0
  2  3  1  0
  2  4  1  0
  4  5  1  0
  4  6  1  0
  6  7  1  0
  7  8  1  0
  8  9  2  0
  9 10  1  0
 10 11  2  0
 11 12  1  0
 12 13  1  0
 13 14  2  0
 14 15  1  0
 15 16  2  0
 16 17  1  0
 17 18  2  0
 18 19  1  0
 19 20  2  0
 19 21  1  0
 16  8  1  0
 13  9  1  0
 21 15  1  0
  1 22  1  0
  1 23  1  0
  3 24  1  0
  3 25  1  0
  3 26  1  0
  4 27  1  1
  5 28  1  0
  6 29  1  0
  6 30  1  0
 10 31  1  0
 11 32  1  0
 14 33  1  0
 17 34  1  0
 18 35  1  0
M  END
>  <Name>  (392) 
Pabulenol

>  <PubChem ID>  (392) 
3009225

>  <CDB ID>  (392) 
CDB0392

>  <Smiles>  (392) 
C=C(C)[C@@H](O)COC1=C2C=COC2=CC2=C1C=CC(=O)O2

>  <Chemical class>  (392) 
5,7-Dioxygenated Coumarins

>  <Natural source>  (392) 
Prangos pabularia

>  <Molecular Formula>  (392) 
C16H14O5

>  <InChI-Key>  (392) 
BVMOMQJYQYBMKL-LBPRGKRZSA-N

>  <Total Molweight>  (392) 
286.282

>  <cLogP>  (392) 
2.5932

>  <cLogS>  (392) 
-4.051

>  <H-Acceptors>  (392) 
5

>  <H-Donors>  (392) 
1

>  <Rotatable Bonds>  (392) 
4

>  <Polar Surface Area>  (392) 
68.9

$$$$
CDB0393
     RDKit          3D

 35 37  0  0  0  0  0  0  0  0999 V2000
   -4.0670   -1.7854   -1.0481 C   0  0  0  0  0  0  0  0  0  0  0  0
   -3.5834   -0.7206   -0.3835 C   0  0  0  0  0  0  0  0  0  0  0  0
   -4.2188    0.6340   -0.5497 C   0  0  0  0  0  0  0  0  0  0  0  0
   -2.4215   -0.7888    0.5900 C   0  0  1  0  0  0  0  0  0  0  0  0
   -2.1179   -2.1543    0.9045 O   0  0  0  0  0  0  0  0  0  0  0  0
   -1.1469   -0.1199    0.0469 C   0  0  0  0  0  0  0  0  0  0  0  0
   -0.1279   -0.2317    1.0629 O   0  0  0  0  0  0  0  0  0  0  0  0
    1.0509    0.3207    0.6079 C   0  0  0  0  0  0  0  0  0  0  0  0
    1.2976    1.7018    0.7639 C   0  0  0  0  0  0  0  0  0  0  0  0
    0.5908    2.8140    1.2990 C   0  0  0  0  0  0  0  0  0  0  0  0
    1.4056    3.9102    1.1355 C   0  0  0  0  0  0  0  0  0  0  0  0
    2.5724    3.5531    0.5392 O   0  0  0  0  0  0  0  0  0  0  0  0
    2.5134    2.2106    0.3194 C   0  0  0  0  0  0  0  0  0  0  0  0
    3.5194    1.4460   -0.2605 C   0  0  0  0  0  0  0  0  0  0  0  0
    3.2507    0.0784   -0.3678 C   0  0  0  0  0  0  0  0  0  0  0  0
    2.0527   -0.5037    0.0577 C   0  0  0  0  0  0  0  0  0  0  0  0
    1.8981   -1.9474   -0.0909 C   0  0  0  0  0  0  0  0  0  0  0  0
    2.8789   -2.6772   -0.6303 C   0  0  0  0  0  0  0  0  0  0  0  0
    4.1422   -2.0826   -1.0941 C   0  0  0  0  0  0  0  0  0  0  0  0
    5.0202   -2.7786   -1.5893 O   0  0  0  0  0  0  0  0  0  0  0  0
    4.2765   -0.7105   -0.9396 O   0  0  0  0  0  0  0  0  0  0  0  0
   -3.6328   -2.7741   -0.9256 H   0  0  0  0  0  0  0  0  0  0  0  0
   -4.9113   -1.7056   -1.7255 H   0  0  0  0  0  0  0  0  0  0  0  0
   -5.1036    0.5976   -1.1944 H   0  0  0  0  0  0  0  0  0  0  0  0
   -4.5360    1.0267    0.4218 H   0  0  0  0  0  0  0  0  0  0  0  0
   -3.5136    1.3400   -0.9985 H   0  0  0  0  0  0  0  0  0  0  0  0
   -2.7139   -0.3207    1.5376 H   0  0  0  0  0  0  0  0  0  0  0  0
   -1.3682   -2.1162    1.5258 H   0  0  0  0  0  0  0  0  0  0  0  0
   -1.3338    0.9354   -0.1818 H   0  0  0  0  0  0  0  0  0  0  0  0
   -0.8129   -0.6388   -0.8610 H   0  0  0  0  0  0  0  0  0  0  0  0
   -0.3910    2.8116    1.7502 H   0  0  0  0  0  0  0  0  0  0  0  0
    1.3093    4.9593    1.3796 H   0  0  0  0  0  0  0  0  0  0  0  0
    4.4523    1.8846   -0.5910 H   0  0  0  0  0  0  0  0  0  0  0  0
    0.9793   -2.4177    0.2426 H   0  0  0  0  0  0  0  0  0  0  0  0
    2.7904   -3.7500   -0.7526 H   0  0  0  0  0  0  0  0  0  0  0  0
  1  2  2  0
  2  3  1  0
  2  4  1  0
  4  5  1  0
  4  6  1  0
  6  7  1  0
  7  8  1  0
  8  9  2  0
  9 10  1  0
 10 11  2  0
 11 12  1  0
 12 13  1  0
 13 14  2  0
 14 15  1  0
 15 16  2  0
 16 17  1  0
 17 18  2  0
 18 19  1  0
 19 20  2  0
 19 21  1  0
 16  8  1  0
 13  9  1  0
 21 15  1  0
  1 22  1  0
  1 23  1  0
  3 24  1  0
  3 25  1  0
  3 26  1  0
  4 27  1  1
  5 28  1  0
  6 29  1  0
  6 30  1  0
 10 31  1  0
 11 32  1  0
 14 33  1  0
 17 34  1  0
 18 35  1  0
M  END
>  <Name>  (393) 
Gosferol

>  <PubChem ID>  (393) 
511358

>  <CDB ID>  (393) 
CDB0393

>  <Smiles>  (393) 
C=C(C)[C@@H](O)COC1=C2C=COC2=CC2=C1C=CC(=O)O2

>  <Chemical class>  (393) 
5,7-Dioxygenated Coumarins

>  <Natural source>  (393) 
Prangos ferulaceae

>  <Molecular Formula>  (393) 
C16H14O5

>  <InChI-Key>  (393) 
BVMOMQJYQYBMKL-LBPRGKRZSA-N

>  <Total Molweight>  (393) 
286.282

>  <cLogP>  (393) 
2.5932

>  <cLogS>  (393) 
-4.051

>  <H-Acceptors>  (393) 
5

>  <H-Donors>  (393) 
1

>  <Rotatable Bonds>  (393) 
4

>  <Polar Surface Area>  (393) 
68.9

$$$$
CDB0394
     RDKit          3D

 35 38  0  0  0  0  0  0  0  0999 V2000
    1.9997   -2.6338   -1.1184 C   0  0  0  0  0  0  0  0  0  0  0  0
    2.0641   -1.4221   -0.2397 C   0  0  0  0  0  0  0  0  0  0  0  0
    2.1993   -0.1075   -0.9438 C   0  0  0  0  0  0  0  0  0  0  0  0
    2.9547   -1.5647    0.8780 O   0  0  0  0  0  0  0  0  0  0  0  0
    1.5528   -1.5398    1.1903 C   0  0  1  0  0  0  0  0  0  0  0  0
    1.1278   -0.3874    2.0398 C   0  0  0  0  0  0  0  0  0  0  0  0
   -0.3065   -0.2850    2.0503 O   0  0  0  0  0  0  0  0  0  0  0  0
   -0.7765    0.5304    1.0400 C   0  0  0  0  0  0  0  0  0  0  0  0
   -0.6138    1.9338    1.0853 C   0  0  0  0  0  0  0  0  0  0  0  0
   -0.0254    2.8716    1.9796 C   0  0  0  0  0  0  0  0  0  0  0  0
   -0.2035    4.1146    1.4184 C   0  0  0  0  0  0  0  0  0  0  0  0
   -0.8706    4.0144    0.2402 O   0  0  0  0  0  0  0  0  0  0  0  0
   -1.1320    2.6933    0.0410 C   0  0  0  0  0  0  0  0  0  0  0  0
   -1.8219    2.1686   -1.0460 C   0  0  0  0  0  0  0  0  0  0  0  0
   -2.0057    0.7839   -1.0305 C   0  0  0  0  0  0  0  0  0  0  0  0
   -1.5198   -0.0418   -0.0127 C   0  0  0  0  0  0  0  0  0  0  0  0
   -1.8064   -1.4708   -0.0921 C   0  0  0  0  0  0  0  0  0  0  0  0
   -2.4866   -1.9653   -1.1303 C   0  0  0  0  0  0  0  0  0  0  0  0
   -2.9768   -1.1170   -2.2276 C   0  0  0  0  0  0  0  0  0  0  0  0
   -3.5788   -1.6040   -3.1769 O   0  0  0  0  0  0  0  0  0  0  0  0
   -2.7223    0.2425   -2.1235 O   0  0  0  0  0  0  0  0  0  0  0  0
    1.1110   -2.5908   -1.7562 H   0  0  0  0  0  0  0  0  0  0  0  0
    1.9509   -3.5600   -0.5359 H   0  0  0  0  0  0  0  0  0  0  0  0
    2.8832   -2.6898   -1.7625 H   0  0  0  0  0  0  0  0  0  0  0  0
    2.4279    0.7180   -0.2642 H   0  0  0  0  0  0  0  0  0  0  0  0
    1.2755    0.1340   -1.4777 H   0  0  0  0  0  0  0  0  0  0  0  0
    3.0102   -0.1523   -1.6788 H   0  0  0  0  0  0  0  0  0  0  0  0
    1.1035   -2.4698    1.5155 H   0  0  0  0  0  0  0  0  0  0  0  0
    1.4259   -0.5961    3.0736 H   0  0  0  0  0  0  0  0  0  0  0  0
    1.6188    0.5524    1.7687 H   0  0  0  0  0  0  0  0  0  0  0  0
    0.4667    2.6632    2.9189 H   0  0  0  0  0  0  0  0  0  0  0  0
    0.0671    5.1180    1.7173 H   0  0  0  0  0  0  0  0  0  0  0  0
   -2.2066    2.7995   -1.8372 H   0  0  0  0  0  0  0  0  0  0  0  0
   -1.4698   -2.1195    0.7093 H   0  0  0  0  0  0  0  0  0  0  0  0
   -2.7160   -3.0208   -1.2120 H   0  0  0  0  0  0  0  0  0  0  0  0
  1  2  1  0
  2  3  1  0
  2  4  1  0
  4  5  1  0
  5  6  1  0
  6  7  1  0
  7  8  1  0
  8  9  2  0
  9 10  1  0
 10 11  2  0
 11 12  1  0
 12 13  1  0
 13 14  2  0
 14 15  1  0
 15 16  2  0
 16 17  1  0
 17 18  2  0
 18 19  1  0
 19 20  2  0
 19 21  1  0
  5  2  1  0
 16  8  1  0
 13  9  1  0
 21 15  1  0
  1 22  1  0
  1 23  1  0
  1 24  1  0
  3 25  1  0
  3 26  1  0
  3 27  1  0
  5 28  1  6
  6 29  1  0
  6 30  1  0
 10 31  1  0
 11 32  1  0
 14 33  1  0
 17 34  1  0
 18 35  1  0
M  END
>  <Name>  (394) 
Prangolarine (( + )-Oxypeucedanin)

>  <PubChem ID>  (394) 
928465

>  <CDB ID>  (394) 
CDB0394

>  <Smiles>  (394) 
CC1(C)O[C@H]1COC1=C2C=COC2=CC2=C1C=CC(=O)O2

>  <Chemical class>  (394) 
5,7-Dioxygenated Coumarins

>  <Natural source>  (394) 
Prangos pabularia

>  <Molecular Formula>  (394) 
C16H14O5

>  <InChI-Key>  (394) 
QTAGQHZOLRFCBU-ZDUSSCGKSA-N

>  <Total Molweight>  (394) 
286.282

>  <cLogP>  (394) 
2.1175

>  <cLogS>  (394) 
-4.179

>  <H-Acceptors>  (394) 
5

>  <H-Donors>  (394) 
0

>  <Rotatable Bonds>  (394) 
3

>  <Polar Surface Area>  (394) 
61.2

$$$$
CDB0395
     RDKit          3D

 35 37  0  0  0  0  0  0  0  0999 V2000
    4.1398    1.6228   -0.0032 C   0  0  0  0  0  0  0  0  0  0  0  0
    3.4399    0.2679   -0.0617 C   0  0  0  0  0  0  0  0  0  0  0  0
    4.3091   -0.8239    0.5501 C   0  0  0  0  0  0  0  0  0  0  0  0
    2.0946    0.3173    0.6592 C   0  0  0  0  0  0  0  0  0  0  0  0
    1.9012    1.0730    1.6129 O   0  0  0  0  0  0  0  0  0  0  0  0
    1.0164   -0.6259    0.1244 C   0  0  0  0  0  0  0  0  0  0  0  0
   -0.1142   -0.6478    0.9938 O   0  0  0  0  0  0  0  0  0  0  0  0
   -1.2942   -0.5795    0.2837 C   0  0  0  0  0  0  0  0  0  0  0  0
   -2.0756    0.5896    0.3672 C   0  0  0  0  0  0  0  0  0  0  0  0
   -1.6776    1.7492    1.1586 C   0  0  0  0  0  0  0  0  0  0  0  0
   -2.4486    2.8400    1.1884 C   0  0  0  0  0  0  0  0  0  0  0  0
   -3.7124    2.9328    0.4414 C   0  0  0  0  0  0  0  0  0  0  0  0
   -4.3929    3.9509    0.4786 O   0  0  0  0  0  0  0  0  0  0  0  0
   -4.0816    1.8178   -0.2982 O   0  0  0  0  0  0  0  0  0  0  0  0
   -3.2796    0.6532   -0.3390 C   0  0  0  0  0  0  0  0  0  0  0  0
   -3.7666   -0.4001   -1.1178 C   0  0  0  0  0  0  0  0  0  0  0  0
   -2.9776   -1.5454   -1.1389 C   0  0  0  0  0  0  0  0  0  0  0  0
   -1.7685   -1.6802   -0.4637 C   0  0  0  0  0  0  0  0  0  0  0  0
   -1.3254   -3.0041   -0.7369 C   0  0  0  0  0  0  0  0  0  0  0  0
   -2.2703   -3.5709   -1.5605 C   0  0  0  0  0  0  0  0  0  0  0  0
   -3.2729   -2.6908   -1.8132 O   0  0  0  0  0  0  0  0  0  0  0  0
    5.0675    1.6059   -0.5846 H   0  0  0  0  0  0  0  0  0  0  0  0
    3.4971    2.4099   -0.4126 H   0  0  0  0  0  0  0  0  0  0  0  0
    4.3905    1.9024    1.0260 H   0  0  0  0  0  0  0  0  0  0  0  0
    3.2469    0.0347   -1.1156 H   0  0  0  0  0  0  0  0  0  0  0  0
    5.2755   -0.8859    0.0391 H   0  0  0  0  0  0  0  0  0  0  0  0
    3.8251   -1.8030    0.4735 H   0  0  0  0  0  0  0  0  0  0  0  0
    4.4958   -0.6336    1.6129 H   0  0  0  0  0  0  0  0  0  0  0  0
    1.4297   -1.6383    0.0828 H   0  0  0  0  0  0  0  0  0  0  0  0
    0.7676   -0.2886   -0.8904 H   0  0  0  0  0  0  0  0  0  0  0  0
   -0.7527    1.7083    1.7270 H   0  0  0  0  0  0  0  0  0  0  0  0
   -2.1768    3.7121    1.7705 H   0  0  0  0  0  0  0  0  0  0  0  0
   -4.7027   -0.3408   -1.6582 H   0  0  0  0  0  0  0  0  0  0  0  0
   -0.4316   -3.4875   -0.3701 H   0  0  0  0  0  0  0  0  0  0  0  0
   -2.3748   -4.5417   -2.0254 H   0  0  0  0  0  0  0  0  0  0  0  0
  1  2  1  0
  2  3  1  0
  2  4  1  0
  4  5  2  0
  4  6  1  0
  6  7  1  0
  7  8  1  0
  8  9  1  0
  9 10  1  0
 10 11  2  0
 11 12  1  0
 12 13  2  0
 12 14  1  0
 14 15  1  0
 15 16  1  0
 16 17  2  0
 17 18  1  0
 18 19  1  0
 19 20  2  0
 20 21  1  0
 18  8  2  0
 15  9  2  0
 21 17  1  0
  1 22  1  0
  1 23  1  0
  1 24  1  0
  2 25  1  0
  3 26  1  0
  3 27  1  0
  3 28  1  0
  6 29  1  0
  6 30  1  0
 10 31  1  0
 11 32  1  0
 16 33  1  0
 19 34  1  0
 20 35  1  0
M  END
>  <Name>  (395) 
Isooxypeucedanin

>  <PubChem ID>  (395) 
625383

>  <CDB ID>  (395) 
CDB0395

>  <Smiles>  (395) 
CC(C)C(=O)COC1=C2C=CC(=O)OC2=CC3=C1C=CO3

>  <Chemical class>  (395) 
5,7-Dioxygenated Coumarins

>  <Natural source>  (395) 
Angelica sylvestris

>  <Molecular Formula>  (395) 
C16H14O5

>  <InChI-Key>  (395) 
USLPJJIUMAKBIU-UHFFFAOYSA-N

>  <Total Molweight>  (395) 
286.282

>  <cLogP>  (395) 
2.3594

>  <cLogS>  (395) 
-4.199

>  <H-Acceptors>  (395) 
5

>  <H-Donors>  (395) 
0

>  <Rotatable Bonds>  (395) 
4

>  <Polar Surface Area>  (395) 
65.74

$$$$
CDB0396
     RDKit          3D

 38 40  0  0  0  0  0  0  0  0999 V2000
    3.7831   -1.0272   -0.3786 C   0  0  0  0  0  0  0  0  0  0  0  0
    3.4219    0.4506   -0.2022 C   0  0  0  0  0  0  0  0  0  0  0  0
    3.5295    0.8492    1.2694 C   0  0  0  0  0  0  0  0  0  0  0  0
    4.4133    1.2098   -0.9161 O   0  0  0  0  0  0  0  0  0  0  0  0
    2.0440    0.8190   -0.8053 C   0  0  1  0  0  0  0  0  0  0  0  0
    2.0979    0.5780   -2.2289 O   0  0  0  0  0  0  0  0  0  0  0  0
    0.8531    0.0549   -0.2161 C   0  0  0  0  0  0  0  0  0  0  0  0
   -0.3370    0.5797   -0.8404 O   0  0  0  0  0  0  0  0  0  0  0  0
   -1.4564   -0.0422   -0.3257 C   0  0  0  0  0  0  0  0  0  0  0  0
   -1.8620   -1.3094   -0.7991 C   0  0  0  0  0  0  0  0  0  0  0  0
   -1.3845   -2.2477   -1.7559 C   0  0  0  0  0  0  0  0  0  0  0  0
   -2.2563   -3.3114   -1.7294 C   0  0  0  0  0  0  0  0  0  0  0  0
   -3.2461   -3.0948   -0.8252 O   0  0  0  0  0  0  0  0  0  0  0  0
   -3.0147   -1.8758   -0.2648 C   0  0  0  0  0  0  0  0  0  0  0  0
   -3.8119   -1.2714    0.7011 C   0  0  0  0  0  0  0  0  0  0  0  0
   -3.3974   -0.0031    1.1170 C   0  0  0  0  0  0  0  0  0  0  0  0
   -2.2533    0.6296    0.6223 C   0  0  0  0  0  0  0  0  0  0  0  0
   -1.9378    1.9670    1.1141 C   0  0  0  0  0  0  0  0  0  0  0  0
   -2.7211    2.5495    2.0266 C   0  0  0  0  0  0  0  0  0  0  0  0
   -3.9175    1.8921    2.5760 C   0  0  0  0  0  0  0  0  0  0  0  0
   -4.6069    2.4482    3.4221 O   0  0  0  0  0  0  0  0  0  0  0  0
   -4.2119    0.6279    2.0865 O   0  0  0  0  0  0  0  0  0  0  0  0
    3.1152   -1.6829    0.1881 H   0  0  0  0  0  0  0  0  0  0  0  0
    3.7493   -1.3221   -1.4332 H   0  0  0  0  0  0  0  0  0  0  0  0
    4.8097   -1.2159   -0.0429 H   0  0  0  0  0  0  0  0  0  0  0  0
    2.8628    0.2605    1.9065 H   0  0  0  0  0  0  0  0  0  0  0  0
    3.2917    1.9106    1.4030 H   0  0  0  0  0  0  0  0  0  0  0  0
    4.5548    0.7160    1.6340 H   0  0  0  0  0  0  0  0  0  0  0  0
    4.1771    1.1133   -1.8616 H   0  0  0  0  0  0  0  0  0  0  0  0
    1.8778    1.8991   -0.7052 H   0  0  0  0  0  0  0  0  0  0  0  0
    1.2059    0.7908   -2.5666 H   0  0  0  0  0  0  0  0  0  0  0  0
    0.7949    0.2009    0.8680 H   0  0  0  0  0  0  0  0  0  0  0  0
    0.9409   -1.0123   -0.4465 H   0  0  0  0  0  0  0  0  0  0  0  0
   -0.5115   -2.1564   -2.3866 H   0  0  0  0  0  0  0  0  0  0  0  0
   -2.3117   -4.2489   -2.2655 H   0  0  0  0  0  0  0  0  0  0  0  0
   -4.7023   -1.7502    1.0884 H   0  0  0  0  0  0  0  0  0  0  0  0
   -1.0683    2.4820    0.7202 H   0  0  0  0  0  0  0  0  0  0  0  0
   -2.5143    3.5429    2.4063 H   0  0  0  0  0  0  0  0  0  0  0  0
  1  2  1  0
  2  3  1  0
  2  4  1  0
  2  5  1  0
  5  6  1  0
  5  7  1  0
  7  8  1  0
  8  9  1  0
  9 10  2  0
 10 11  1  0
 11 12  2  0
 12 13  1  0
 13 14  1  0
 14 15  2  0
 15 16  1  0
 16 17  2  0
 17 18  1  0
 18 19  2  0
 19 20  1  0
 20 21  2  0
 20 22  1  0
 17  9  1  0
 14 10  1  0
 22 16  1  0
  1 23  1  0
  1 24  1  0
  1 25  1  0
  3 26  1  0
  3 27  1  0
  3 28  1  0
  4 29  1  0
  5 30  1  6
  6 31  1  0
  7 32  1  0
  7 33  1  0
 11 34  1  0
 12 35  1  0
 15 36  1  0
 18 37  1  0
 19 38  1  0
M  END
>  <Name>  (396) 
(+ )-Oxypeucedanin Hydrate

>  <PubChem ID>  (396) 
17536

>  <CDB ID>  (396) 
CDB0396

>  <Smiles>  (396) 
CC(C)(O)[C@@H](O)COC1=C2C=COC2=CC2=C1C=CC(=O)O2

>  <Chemical class>  (396) 
5,7-Dioxygenated Coumarins

>  <Natural source>  (396) 
Angelica gmelini, Peucedanum palustre

>  <Molecular Formula>  (396) 
C16H16O6

>  <InChI-Key>  (396) 
PEWFWDOPJISUOK-ZDUSSCGKSA-N

>  <Total Molweight>  (396) 
304.297

>  <cLogP>  (396) 
1.5311

>  <cLogS>  (396) 
-3.698

>  <H-Acceptors>  (396) 
6

>  <H-Donors>  (396) 
2

>  <Rotatable Bonds>  (396) 
4

>  <Polar Surface Area>  (396) 
89.13

$$$$
CDB0397
     RDKit          3D

 41 43  0  0  0  0  0  0  0  0999 V2000
    3.3071   -0.8136   -1.4398 C   0  0  0  0  0  0  0  0  0  0  0  0
    3.3268   -0.7003   -0.0234 O   0  0  0  0  0  0  0  0  0  0  0  0
    3.1031    0.6115    0.5299 C   0  0  0  0  0  0  0  0  0  0  0  0
    3.4171    0.4463    2.0302 C   0  0  0  0  0  0  0  0  0  0  0  0
    4.0956    1.6433   -0.0361 C   0  0  0  0  0  0  0  0  0  0  0  0
    1.6280    1.0901    0.3618 C   0  0  1  0  0  0  0  0  0  0  0  0
    1.3922    1.5645   -0.9777 O   0  0  0  0  0  0  0  0  0  0  0  0
    0.5887   -0.0000    0.6793 C   0  0  0  0  0  0  0  0  0  0  0  0
   -0.7089    0.6245    0.6757 O   0  0  0  0  0  0  0  0  0  0  0  0
   -1.7400   -0.2000    0.2482 C   0  0  0  0  0  0  0  0  0  0  0  0
   -1.9255   -1.5392    0.6780 C   0  0  0  0  0  0  0  0  0  0  0  0
   -1.2807   -2.4501    1.5657 C   0  0  0  0  0  0  0  0  0  0  0  0
   -1.9896   -3.6275    1.5165 C   0  0  0  0  0  0  0  0  0  0  0  0
   -3.0418   -3.5118    0.6705 O   0  0  0  0  0  0  0  0  0  0  0  0
   -3.0151   -2.2462    0.1715 C   0  0  0  0  0  0  0  0  0  0  0  0
   -3.9515   -1.7294   -0.7161 C   0  0  0  0  0  0  0  0  0  0  0  0
   -3.7661   -0.3957   -1.0781 C   0  0  0  0  0  0  0  0  0  0  0  0
   -2.7032    0.3813   -0.6095 C   0  0  0  0  0  0  0  0  0  0  0  0
   -2.6413    1.7781   -1.0358 C   0  0  0  0  0  0  0  0  0  0  0  0
   -3.5605    2.2724   -1.8702 C   0  0  0  0  0  0  0  0  0  0  0  0
   -4.6665    1.4584   -2.3970 C   0  0  0  0  0  0  0  0  0  0  0  0
   -5.4845    1.9366   -3.1734 O   0  0  0  0  0  0  0  0  0  0  0  0
   -4.7286    0.1429   -1.9634 O   0  0  0  0  0  0  0  0  0  0  0  0
    4.1226   -0.2471   -1.8957 H   0  0  0  0  0  0  0  0  0  0  0  0
    3.4602   -1.8679   -1.6890 H   0  0  0  0  0  0  0  0  0  0  0  0
    2.3455   -0.5131   -1.8587 H   0  0  0  0  0  0  0  0  0  0  0  0
    2.8256   -0.3566    2.4822 H   0  0  0  0  0  0  0  0  0  0  0  0
    4.4660    0.1604    2.1755 H   0  0  0  0  0  0  0  0  0  0  0  0
    3.2351    1.3712    2.5874 H   0  0  0  0  0  0  0  0  0  0  0  0
    3.9225    1.8444   -1.0981 H   0  0  0  0  0  0  0  0  0  0  0  0
    5.1257    1.2784    0.0475 H   0  0  0  0  0  0  0  0  0  0  0  0
    4.0213    2.5979    0.4960 H   0  0  0  0  0  0  0  0  0  0  0  0
    1.4522    1.9600    1.0071 H   0  0  0  0  0  0  0  0  0  0  0  0
    0.4317    1.7117   -1.0488 H   0  0  0  0  0  0  0  0  0  0  0  0
    0.6390   -0.7907   -0.0787 H   0  0  0  0  0  0  0  0  0  0  0  0
    0.7601   -0.4131    1.6754 H   0  0  0  0  0  0  0  0  0  0  0  0
   -0.4063   -2.2805    2.1758 H   0  0  0  0  0  0  0  0  0  0  0  0
   -1.8835   -4.5875    2.0028 H   0  0  0  0  0  0  0  0  0  0  0  0
   -4.7804   -2.3228   -1.0808 H   0  0  0  0  0  0  0  0  0  0  0  0
   -1.8519    2.4135   -0.6505 H   0  0  0  0  0  0  0  0  0  0  0  0
   -3.5403    3.3054   -2.1957 H   0  0  0  0  0  0  0  0  0  0  0  0
  1  2  1  0
  2  3  1  0
  3  4  1  0
  3  5  1  0
  3  6  1  0
  6  7  1  0
  6  8  1  0
  8  9  1  0
  9 10  1  0
 10 11  2  0
 11 12  1  0
 12 13  2  0
 13 14  1  0
 14 15  1  0
 15 16  2  0
 16 17  1  0
 17 18  2  0
 18 19  1  0
 19 20  2  0
 20 21  1  0
 21 22  2  0
 21 23  1  0
 18 10  1  0
 15 11  1  0
 23 17  1  0
  1 24  1  0
  1 25  1  0
  1 26  1  0
  4 27  1  0
  4 28  1  0
  4 29  1  0
  5 30  1  0
  5 31  1  0
  5 32  1  0
  6 33  1  1
  7 34  1  0
  8 35  1  0
  8 36  1  0
 12 37  1  0
 13 38  1  0
 16 39  1  0
 19 40  1  0
 20 41  1  0
M  END
>  <Name>  (397) 
(+ )-Oxypeucedanin Methanolate

>  <PubChem ID>  (397) 
483514

>  <CDB ID>  (397) 
CDB0397

>  <Smiles>  (397) 
COC(C)(C)[C@@H](O)COC1=C2C=COC2=CC2=C1C=CC(=O)O2

>  <Chemical class>  (397) 
5,7-Dioxygenated Coumarins

>  <Natural source>  (397) 
Skimmia japonica

>  <Molecular Formula>  (397) 
C17H18O6

>  <InChI-Key>  (397) 
UHENVVIVPZCJOA-AWEZNQCLSA-N

>  <Total Molweight>  (397) 
318.324

>  <cLogP>  (397) 
1.959

>  <cLogS>  (397) 
-3.826

>  <H-Acceptors>  (397) 
6

>  <H-Donors>  (397) 
1

>  <Rotatable Bonds>  (397) 
5

>  <Polar Surface Area>  (397) 
78.13

$$$$
CDB0398
     RDKit          3D

 50 52  0  0  0  0  0  0  0  0999 V2000
   -5.7162    0.6159    1.8345 C   0  0  0  0  0  0  0  0  0  0  0  0
   -4.4615    0.4374    1.0388 C   0  0  0  0  0  0  0  0  0  0  0  0
   -3.8635    1.3308    0.2232 C   0  0  0  0  0  0  0  0  0  0  0  0
   -4.3449    2.7280   -0.0482 C   0  0  0  0  0  0  0  0  0  0  0  0
   -2.6078    0.9866   -0.5189 C   0  0  0  0  0  0  0  0  0  0  0  0
   -2.0725    1.7428   -1.3165 O   0  0  0  0  0  0  0  0  0  0  0  0
   -2.1402   -0.2418   -0.1812 O   0  0  0  0  0  0  0  0  0  0  0  0
   -0.9517   -0.6798   -0.8759 C   0  0  1  0  0  0  0  0  0  0  0  0
    0.2856   -0.0431   -0.2121 C   0  0  0  0  0  0  0  0  0  0  0  0
    1.4764   -0.4878   -0.8785 O   0  0  0  0  0  0  0  0  0  0  0  0
    2.5581    0.2903   -0.5181 C   0  0  0  0  0  0  0  0  0  0  0  0
    2.7369    1.5843   -1.0577 C   0  0  0  0  0  0  0  0  0  0  0  0
    2.0245    2.4295   -1.9542 C   0  0  0  0  0  0  0  0  0  0  0  0
    2.7511    3.5929   -2.0559 C   0  0  0  0  0  0  0  0  0  0  0  0
    3.8698    3.5259   -1.2888 O   0  0  0  0  0  0  0  0  0  0  0  0
    3.8678    2.3045   -0.6872 C   0  0  0  0  0  0  0  0  0  0  0  0
    4.8524    1.8322    0.1735 C   0  0  0  0  0  0  0  0  0  0  0  0
    4.6589    0.5349    0.6560 C   0  0  0  0  0  0  0  0  0  0  0  0
    3.5505   -0.2498    0.3233 C   0  0  0  0  0  0  0  0  0  0  0  0
    3.4776   -1.6028    0.8657 C   0  0  0  0  0  0  0  0  0  0  0  0
    4.4398   -2.0560    1.6746 C   0  0  0  0  0  0  0  0  0  0  0  0
    5.6004   -1.2369    2.0580 C   0  0  0  0  0  0  0  0  0  0  0  0
    6.4564   -1.6763    2.8160 O   0  0  0  0  0  0  0  0  0  0  0  0
    5.6652    0.0392    1.5183 O   0  0  0  0  0  0  0  0  0  0  0  0
   -0.9230   -2.2397   -0.9054 C   0  0  0  0  0  0  0  0  0  0  0  0
   -0.7809   -2.8583    0.4893 C   0  0  0  0  0  0  0  0  0  0  0  0
   -2.2053   -2.7782   -1.5565 C   0  0  0  0  0  0  0  0  0  0  0  0
    0.1613   -2.7242   -1.7090 O   0  0  0  0  0  0  0  0  0  0  0  0
   -6.4297   -0.1718    1.5718 H   0  0  0  0  0  0  0  0  0  0  0  0
   -6.2114    1.5745    1.6733 H   0  0  0  0  0  0  0  0  0  0  0  0
   -5.4906    0.5265    2.9018 H   0  0  0  0  0  0  0  0  0  0  0  0
   -4.0239   -0.5526    1.1625 H   0  0  0  0  0  0  0  0  0  0  0  0
   -5.2168    3.0118    0.5442 H   0  0  0  0  0  0  0  0  0  0  0  0
   -3.5568    3.4534    0.1827 H   0  0  0  0  0  0  0  0  0  0  0  0
   -4.6168    2.8369   -1.1036 H   0  0  0  0  0  0  0  0  0  0  0  0
   -0.9796   -0.3485   -1.9242 H   0  0  0  0  0  0  0  0  0  0  0  0
    0.3341   -0.3158    0.8495 H   0  0  0  0  0  0  0  0  0  0  0  0
    0.1894    1.0483   -0.2438 H   0  0  0  0  0  0  0  0  0  0  0  0
    1.0917    2.2163   -2.4583 H   0  0  0  0  0  0  0  0  0  0  0  0
    2.6153    4.5150   -2.6041 H   0  0  0  0  0  0  0  0  0  0  0  0
    5.7172    2.4289    0.4344 H   0  0  0  0  0  0  0  0  0  0  0  0
    2.6417   -2.2374    0.5940 H   0  0  0  0  0  0  0  0  0  0  0  0
    4.4140   -3.0574    2.0873 H   0  0  0  0  0  0  0  0  0  0  0  0
   -0.8132   -3.9529    0.4321 H   0  0  0  0  0  0  0  0  0  0  0  0
   -1.5755   -2.5277    1.1655 H   0  0  0  0  0  0  0  0  0  0  0  0
    0.1865   -2.6142    0.9388 H   0  0  0  0  0  0  0  0  0  0  0  0
   -3.0990   -2.5331   -0.9738 H   0  0  0  0  0  0  0  0  0  0  0  0
   -2.3267   -2.3703   -2.5666 H   0  0  0  0  0  0  0  0  0  0  0  0
   -2.1582   -3.8677   -1.6694 H   0  0  0  0  0  0  0  0  0  0  0  0
    0.9433   -2.1623   -1.5446 H   0  0  0  0  0  0  0  0  0  0  0  0
  1  2  1  0
  2  3  2  3
  3  4  1  0
  3  5  1  0
  5  6  2  0
  5  7  1  0
  7  8  1  0
  8  9  1  0
  9 10  1  0
 10 11  1  0
 11 12  2  0
 12 13  1  0
 13 14  2  0
 14 15  1  0
 15 16  1  0
 16 17  2  0
 17 18  1  0
 18 19  2  0
 19 20  1  0
 20 21  2  0
 21 22  1  0
 22 23  2  0
 22 24  1  0
  8 25  1  0
 25 26  1  0
 25 27  1  0
 25 28  1  0
 19 11  1  0
 16 12  1  0
 24 18  1  0
  1 29  1  0
  1 30  1  0
  1 31  1  0
  2 32  1  0
  4 33  1  0
  4 34  1  0
  4 35  1  0
  8 36  1  6
  9 37  1  0
  9 38  1  0
 13 39  1  0
 14 40  1  0
 17 41  1  0
 20 42  1  0
 21 43  1  0
 26 44  1  0
 26 45  1  0
 26 46  1  0
 27 47  1  0
 27 48  1  0
 27 49  1  0
 28 50  1  0
M  END
>  <Name>  (398) 
Ostruthol

>  <PubChem ID>  (398) 
6441273

>  <CDB ID>  (398) 
CDB0398

>  <Smiles>  (398) 
CC=C(C)C(=O)O[C@@H](COC1=C2C=COC2=CC2=C1C=CC(=O)O2)C(C)(C)O

>  <Chemical class>  (398) 
5,7-Dioxygenated Coumarins

>  <Natural source>  (398) 
Peucedanum ostruthium

>  <Molecular Formula>  (398) 
C21H22O7

>  <InChI-Key>  (398) 
WXULKGXQMWVWMP-KRWDZBQOSA-N

>  <Total Molweight>  (398) 
386.399

>  <cLogP>  (398) 
3.2787

>  <cLogS>  (398) 
-4.544

>  <H-Acceptors>  (398) 
7

>  <H-Donors>  (398) 
1

>  <Rotatable Bonds>  (398) 
7

>  <Polar Surface Area>  (398) 
95.2

$$$$
CDB0399
     RDKit          3D

 78 80  0  0  0  0  0  0  0  0999 V2000
    6.8013   -5.5000    0.9040 C   0  0  0  0  0  0  0  0  0  0  0  0
    5.7361   -5.2296    1.9553 C   0  0  0  0  0  0  0  0  0  0  0  0
    5.1442   -3.8201    1.8752 C   0  0  0  0  0  0  0  0  0  0  0  0
    6.1639   -2.7197    2.1826 C   0  0  0  0  0  0  0  0  0  0  0  0
    5.5309   -1.3314    2.3214 C   0  0  0  0  0  0  0  0  0  0  0  0
    4.9240   -0.8092    1.0172 C   0  0  0  0  0  0  0  0  0  0  0  0
    4.3665    0.6047    1.1935 C   0  0  0  0  0  0  0  0  0  0  0  0
    3.7381    1.0993   -0.0778 C   0  0  0  0  0  0  0  0  0  0  0  0
    2.4265    1.2529   -0.3325 C   0  0  0  0  0  0  0  0  0  0  0  0
    1.2612    0.9349    0.5617 C   0  0  0  0  0  0  0  0  0  0  0  0
    0.5737    2.1838    0.9160 C   0  0  0  0  0  0  0  0  0  0  0  0
   -0.0019    3.1958    1.2093 C   0  0  0  0  0  0  0  0  0  0  0  0
   -0.7484    4.4891    1.5808 C   0  0  0  0  0  0  0  0  0  0  0  0
   -1.3340    5.4977    1.8661 C   0  0  0  0  0  0  0  0  0  0  0  0
   -2.0475    6.7288    2.2164 C   0  0  0  0  0  0  0  0  0  0  0  0
   -3.1845    6.9559    1.2651 C   0  0  0  0  0  0  0  0  0  0  0  0
   -4.4748    7.0358    1.6216 C   0  0  0  0  0  0  0  0  0  0  0  0
   -1.1656    7.8384    2.1194 O   0  0  0  0  0  0  0  0  0  0  0  0
    0.3718    0.1255   -0.2045 O   0  0  0  0  0  0  0  0  0  0  0  0
   -0.1261   -1.0865    0.3896 C   0  0  0  0  0  0  0  0  0  0  0  0
    1.0252   -2.0680    0.6749 C   0  0  0  0  0  0  0  0  0  0  0  0
   -0.8968   -0.7864    1.6876 C   0  0  0  0  0  0  0  0  0  0  0  0
   -1.1011   -1.7280   -0.6509 C   0  0  0  0  0  0  0  0  0  0  0  0
   -2.1363   -0.7365   -1.2093 C   0  0  0  0  0  0  0  0  0  0  0  0
   -3.0092   -1.4818   -2.0858 O   0  0  0  0  0  0  0  0  0  0  0  0
   -3.9096   -0.6313   -2.6951 C   0  0  0  0  0  0  0  0  0  0  0  0
   -5.2451   -0.5957   -2.2487 C   0  0  0  0  0  0  0  0  0  0  0  0
   -5.7273   -1.4064   -1.1352 C   0  0  0  0  0  0  0  0  0  0  0  0
   -7.0017   -1.3195   -0.7430 C   0  0  0  0  0  0  0  0  0  0  0  0
   -7.9689   -0.4224   -1.3950 C   0  0  0  0  0  0  0  0  0  0  0  0
   -9.1272   -0.3561   -1.0015 O   0  0  0  0  0  0  0  0  0  0  0  0
   -7.4991    0.3288   -2.4623 O   0  0  0  0  0  0  0  0  0  0  0  0
   -6.1543    0.2474   -2.8944 C   0  0  0  0  0  0  0  0  0  0  0  0
   -5.8128    1.0496   -3.9868 C   0  0  0  0  0  0  0  0  0  0  0  0
   -4.4931    0.9504   -4.4139 C   0  0  0  0  0  0  0  0  0  0  0  0
   -3.5335    0.1386   -3.8180 C   0  0  0  0  0  0  0  0  0  0  0  0
   -2.3465    0.3306   -4.5785 C   0  0  0  0  0  0  0  0  0  0  0  0
   -2.6553    1.2409   -5.5623 C   0  0  0  0  0  0  0  0  0  0  0  0
   -3.9552    1.6231   -5.4685 O   0  0  0  0  0  0  0  0  0  0  0  0
   -0.3664   -2.2727   -1.7653 O   0  0  0  0  0  0  0  0  0  0  0  0
    7.1180   -6.5469    0.9511 H   0  0  0  0  0  0  0  0  0  0  0  0
    7.6877   -4.8788    1.0621 H   0  0  0  0  0  0  0  0  0  0  0  0
    6.4177   -5.3073   -0.1029 H   0  0  0  0  0  0  0  0  0  0  0  0
    6.1561   -5.4022    2.9531 H   0  0  0  0  0  0  0  0  0  0  0  0
    4.9243   -5.9550    1.8239 H   0  0  0  0  0  0  0  0  0  0  0  0
    4.3165   -3.7547    2.5921 H   0  0  0  0  0  0  0  0  0  0  0  0
    4.7141   -3.6698    0.8785 H   0  0  0  0  0  0  0  0  0  0  0  0
    6.9325   -2.6876    1.4021 H   0  0  0  0  0  0  0  0  0  0  0  0
    6.6751   -2.9572    3.1237 H   0  0  0  0  0  0  0  0  0  0  0  0
    6.3059   -0.6326    2.6601 H   0  0  0  0  0  0  0  0  0  0  0  0
    4.7633   -1.3553    3.1045 H   0  0  0  0  0  0  0  0  0  0  0  0
    5.6881   -0.8122    0.2297 H   0  0  0  0  0  0  0  0  0  0  0  0
    4.1198   -1.4758    0.6867 H   0  0  0  0  0  0  0  0  0  0  0  0
    5.1764    1.2921    1.4669 H   0  0  0  0  0  0  0  0  0  0  0  0
    3.6572    0.6258    2.0269 H   0  0  0  0  0  0  0  0  0  0  0  0
    4.4389    1.3638   -0.8695 H   0  0  0  0  0  0  0  0  0  0  0  0
    2.1490    1.6259   -1.3183 H   0  0  0  0  0  0  0  0  0  0  0  0
    1.5882    0.4291    1.4717 H   0  0  0  0  0  0  0  0  0  0  0  0
   -2.4014    6.6788    3.2515 H   0  0  0  0  0  0  0  0  0  0  0  0
   -2.9324    7.0655    0.2128 H   0  0  0  0  0  0  0  0  0  0  0  0
   -4.7893    6.9407    2.6566 H   0  0  0  0  0  0  0  0  0  0  0  0
   -5.2471    7.2057    0.8773 H   0  0  0  0  0  0  0  0  0  0  0  0
   -0.7656    7.8034    1.2352 H   0  0  0  0  0  0  0  0  0  0  0  0
    1.6500   -1.7336    1.5094 H   0  0  0  0  0  0  0  0  0  0  0  0
    0.6441   -3.0616    0.9346 H   0  0  0  0  0  0  0  0  0  0  0  0
    1.6903   -2.1611   -0.1906 H   0  0  0  0  0  0  0  0  0  0  0  0
   -0.2265   -0.4550    2.4879 H   0  0  0  0  0  0  0  0  0  0  0  0
   -1.6250    0.0185    1.5457 H   0  0  0  0  0  0  0  0  0  0  0  0
   -1.4235   -1.6749    2.0521 H   0  0  0  0  0  0  0  0  0  0  0  0
   -1.6196   -2.5822   -0.1978 H   0  0  0  0  0  0  0  0  0  0  0  0
   -2.7308   -0.2928   -0.4038 H   0  0  0  0  0  0  0  0  0  0  0  0
   -1.6296    0.0530   -1.7756 H   0  0  0  0  0  0  0  0  0  0  0  0
   -5.0393   -2.0840   -0.6415 H   0  0  0  0  0  0  0  0  0  0  0  0
   -7.3884   -1.9116    0.0774 H   0  0  0  0  0  0  0  0  0  0  0  0
   -6.5263    1.6959   -4.4817 H   0  0  0  0  0  0  0  0  0  0  0  0
   -1.3838   -0.1358   -4.4214 H   0  0  0  0  0  0  0  0  0  0  0  0
   -2.0921    1.6957   -6.3656 H   0  0  0  0  0  0  0  0  0  0  0  0
   -1.0334   -2.5170   -2.4341 H   0  0  0  0  0  0  0  0  0  0  0  0
  1  2  1  0
  2  3  1  0
  3  4  1  0
  4  5  1  0
  5  6  1  0
  6  7  1  0
  7  8  1  0
  8  9  2  3
  9 10  1  0
 10 11  1  0
 11 12  3  0
 12 13  1  0
 13 14  3  0
 14 15  1  0
 15 16  1  0
 16 17  2  0
 15 18  1  0
 10 19  1  0
 19 20  1  0
 20 21  1  0
 20 22  1  0
 20 23  1  0
 23 24  1  0
 24 25  1  0
 25 26  1  0
 26 27  1  0
 27 28  1  0
 28 29  2  0
 29 30  1  0
 30 31  2  0
 30 32  1  0
 32 33  1  0
 33 34  1  0
 34 35  2  0
 35 36  1  0
 36 37  1  0
 37 38  2  0
 38 39  1  0
 23 40  1  0
 36 26  2  0
 33 27  2  0
 39 35  1  0
  1 41  1  0
  1 42  1  0
  1 43  1  0
  2 44  1  0
  2 45  1  0
  3 46  1  0
  3 47  1  0
  4 48  1  0
  4 49  1  0
  5 50  1  0
  5 51  1  0
  6 52  1  0
  6 53  1  0
  7 54  1  0
  7 55  1  0
  8 56  1  0
  9 57  1  0
 10 58  1  0
 15 59  1  0
 16 60  1  0
 17 61  1  0
 17 62  1  0
 18 63  1  0
 21 64  1  0
 21 65  1  0
 21 66  1  0
 22 67  1  0
 22 68  1  0
 22 69  1  0
 23 70  1  0
 24 71  1  0
 24 72  1  0
 28 73  1  0
 29 74  1  0
 34 75  1  0
 37 76  1  0
 38 77  1  0
 40 78  1  0
M  END
>  <Name>  (399) 
Japoangelol C

>  <PubChem ID>  (399) 
10554599

>  <CDB ID>  (399) 
CDB0399

>  <Smiles>  (399) 
CCCCCCCC=CC(C#CC#CC(C=C)O)OC(C)(C)C(COC1=C2C=CC(=O)OC2=CC3=C1C=CO3)O

>  <Chemical class>  (399) 
5,7-Dioxygenated Coumarins

>  <Natural source>  (399) 
Angelica japonica

>  <Molecular Formula>  (399) 
C33H38O7

>  <InChI-Key>  (399) 
PZHIVNBTNDVCEU-UHFFFAOYSA-N

>  <Total Molweight>  (399) 
546.658

>  <cLogP>  (399) 
6.8911

>  <cLogS>  (399) 
-10.888

>  <H-Acceptors>  (399) 
7

>  <H-Donors>  (399) 
2

>  <Rotatable Bonds>  (399) 
15

>  <Polar Surface Area>  (399) 
98.36

$$$$
CDB0400
     RDKit          3D

 78 80  0  0  0  0  0  0  0  0999 V2000
   11.5045   -2.4959    1.3483 C   0  0  0  0  0  0  0  0  0  0  0  0
   10.3987   -1.4640    1.1841 C   0  0  0  0  0  0  0  0  0  0  0  0
   10.1382   -0.7142    2.4886 C   0  0  0  0  0  0  0  0  0  0  0  0
    9.1482    0.4490    2.3603 C   0  0  0  0  0  0  0  0  0  0  0  0
    7.7249    0.0374    1.9682 C   0  0  0  0  0  0  0  0  0  0  0  0
    7.4474    0.1974    0.4702 C   0  0  0  0  0  0  0  0  0  0  0  0
    6.0200   -0.2314    0.1241 C   0  0  0  0  0  0  0  0  0  0  0  0
    5.7512   -0.0899   -1.3474 C   0  0  0  0  0  0  0  0  0  0  0  0
    4.9714    0.8264   -1.9485 C   0  0  0  0  0  0  0  0  0  0  0  0
    4.2171    1.9544   -1.3086 C   0  0  0  0  0  0  0  0  0  0  0  0
    2.7746    1.7129   -1.4022 C   0  0  0  0  0  0  0  0  0  0  0  0
    1.5922    1.5181   -1.4771 C   0  0  0  0  0  0  0  0  0  0  0  0
    0.0772    1.2678   -1.5765 C   0  0  0  0  0  0  0  0  0  0  0  0
   -1.1046    1.0704   -1.6538 C   0  0  0  0  0  0  0  0  0  0  0  0
   -2.5476    0.8198   -1.7400 C   0  0  0  0  0  0  0  0  0  0  0  0
   -3.1911    1.9447   -2.5135 C   0  0  0  0  0  0  0  0  0  0  0  0
   -3.7581    1.8784   -3.7279 C   0  0  0  0  0  0  0  0  0  0  0  0
   -2.7791   -0.4149   -2.4126 O   0  0  0  0  0  0  0  0  0  0  0  0
   -3.0659   -1.5969   -1.6397 C   0  0  0  0  0  0  0  0  0  0  0  0
   -2.6505   -2.7519   -2.5796 C   0  0  0  0  0  0  0  0  0  0  0  0
   -2.2305   -1.7426   -0.3578 C   0  0  0  0  0  0  0  0  0  0  0  0
   -4.6019   -1.7119   -1.3811 C   0  0  0  0  0  0  0  0  0  0  0  0
   -5.1969   -0.6858   -0.4046 C   0  0  0  0  0  0  0  0  0  0  0  0
   -6.5125   -1.1302   -0.0149 O   0  0  0  0  0  0  0  0  0  0  0  0
   -7.2824   -0.0601    0.3876 C   0  0  0  0  0  0  0  0  0  0  0  0
   -7.4693    0.1991    1.7585 C   0  0  0  0  0  0  0  0  0  0  0  0
   -6.8733   -0.6229    2.8063 C   0  0  0  0  0  0  0  0  0  0  0  0
   -7.0698   -0.3186    4.0924 C   0  0  0  0  0  0  0  0  0  0  0  0
   -7.8768    0.8368    4.5157 C   0  0  0  0  0  0  0  0  0  0  0  0
   -8.0196    1.1008    5.7035 O   0  0  0  0  0  0  0  0  0  0  0  0
   -8.4543    1.5952    3.5079 O   0  0  0  0  0  0  0  0  0  0  0  0
   -8.2631    1.2849    2.1407 C   0  0  0  0  0  0  0  0  0  0  0  0
   -8.9084    2.1231    1.2265 C   0  0  0  0  0  0  0  0  0  0  0  0
   -8.7265    1.8000   -0.1138 C   0  0  0  0  0  0  0  0  0  0  0  0
   -7.9496    0.7392   -0.5658 C   0  0  0  0  0  0  0  0  0  0  0  0
   -8.0578    0.7616   -1.9835 C   0  0  0  0  0  0  0  0  0  0  0  0
   -8.8703    1.8264   -2.2959 C   0  0  0  0  0  0  0  0  0  0  0  0
   -9.2767    2.4648   -1.1673 O   0  0  0  0  0  0  0  0  0  0  0  0
   -5.2956   -1.5706   -2.6387 O   0  0  0  0  0  0  0  0  0  0  0  0
    4.5494    3.1500   -2.0044 O   0  0  0  0  0  0  0  0  0  0  0  0
   11.2422   -3.2334    2.1136 H   0  0  0  0  0  0  0  0  0  0  0  0
   12.4465   -2.0195    1.6380 H   0  0  0  0  0  0  0  0  0  0  0  0
   11.6692   -3.0278    0.4059 H   0  0  0  0  0  0  0  0  0  0  0  0
   10.6813   -0.7576    0.3953 H   0  0  0  0  0  0  0  0  0  0  0  0
    9.4896   -1.9803    0.8584 H   0  0  0  0  0  0  0  0  0  0  0  0
    9.7765   -1.4175    3.2490 H   0  0  0  0  0  0  0  0  0  0  0  0
   11.0862   -0.3098    2.8654 H   0  0  0  0  0  0  0  0  0  0  0  0
    9.5411    1.2024    1.6673 H   0  0  0  0  0  0  0  0  0  0  0  0
    9.0981    0.9341    3.3438 H   0  0  0  0  0  0  0  0  0  0  0  0
    7.5181   -0.9898    2.2907 H   0  0  0  0  0  0  0  0  0  0  0  0
    7.0216    0.6822    2.5108 H   0  0  0  0  0  0  0  0  0  0  0  0
    8.1598   -0.3916   -0.1167 H   0  0  0  0  0  0  0  0  0  0  0  0
    7.5945    1.2471    0.1851 H   0  0  0  0  0  0  0  0  0  0  0  0
    5.8729   -1.2836    0.3975 H   0  0  0  0  0  0  0  0  0  0  0  0
    5.3021    0.3398    0.7214 H   0  0  0  0  0  0  0  0  0  0  0  0
    6.2423   -0.8291   -1.9803 H   0  0  0  0  0  0  0  0  0  0  0  0
    4.8851    0.7651   -3.0324 H   0  0  0  0  0  0  0  0  0  0  0  0
    4.5085    2.1053   -0.2663 H   0  0  0  0  0  0  0  0  0  0  0  0
   -2.9936    0.8219   -0.7423 H   0  0  0  0  0  0  0  0  0  0  0  0
   -3.1903    2.9100   -2.0088 H   0  0  0  0  0  0  0  0  0  0  0  0
   -4.1927    2.7616   -4.1865 H   0  0  0  0  0  0  0  0  0  0  0  0
   -3.7784    0.9581   -4.3030 H   0  0  0  0  0  0  0  0  0  0  0  0
   -2.8669   -3.7307   -2.1387 H   0  0  0  0  0  0  0  0  0  0  0  0
   -1.5771   -2.7032   -2.7994 H   0  0  0  0  0  0  0  0  0  0  0  0
   -3.1583   -2.6871   -3.5486 H   0  0  0  0  0  0  0  0  0  0  0  0
   -1.1589   -1.7098   -0.5851 H   0  0  0  0  0  0  0  0  0  0  0  0
   -2.4149   -0.9450    0.3662 H   0  0  0  0  0  0  0  0  0  0  0  0
   -2.4415   -2.6946    0.1417 H   0  0  0  0  0  0  0  0  0  0  0  0
   -4.8368   -2.7180   -1.0125 H   0  0  0  0  0  0  0  0  0  0  0  0
   -4.5997   -0.6155    0.5088 H   0  0  0  0  0  0  0  0  0  0  0  0
   -5.2457    0.2976   -0.8859 H   0  0  0  0  0  0  0  0  0  0  0  0
   -6.2862   -1.4899    2.5232 H   0  0  0  0  0  0  0  0  0  0  0  0
   -6.6463   -0.9147    4.8915 H   0  0  0  0  0  0  0  0  0  0  0  0
   -9.5235    2.9589    1.5343 H   0  0  0  0  0  0  0  0  0  0  0  0
   -7.5991    0.0766   -2.6835 H   0  0  0  0  0  0  0  0  0  0  0  0
   -9.2397    2.2395   -3.2243 H   0  0  0  0  0  0  0  0  0  0  0  0
   -4.7944   -0.9043   -3.1480 H   0  0  0  0  0  0  0  0  0  0  0  0
    4.1259    3.0954   -2.8767 H   0  0  0  0  0  0  0  0  0  0  0  0
  1  2  1  0
  2  3  1  0
  3  4  1  0
  4  5  1  0
  5  6  1  0
  6  7  1  0
  7  8  1  0
  8  9  2  3
  9 10  1  0
 10 11  1  0
 11 12  3  0
 12 13  1  0
 13 14  3  0
 14 15  1  0
 15 16  1  0
 16 17  2  0
 15 18  1  0
 18 19  1  0
 19 20  1  0
 19 21  1  0
 19 22  1  0
 22 23  1  0
 23 24  1  0
 24 25  1  0
 25 26  1  0
 26 27  1  0
 27 28  2  0
 28 29  1  0
 29 30  2  0
 29 31  1  0
 31 32  1  0
 32 33  1  0
 33 34  2  0
 34 35  1  0
 35 36  1  0
 36 37  2  0
 37 38  1  0
 22 39  1  0
 10 40  1  0
 35 25  2  0
 32 26  2  0
 38 34  1  0
  1 41  1  0
  1 42  1  0
  1 43  1  0
  2 44  1  0
  2 45  1  0
  3 46  1  0
  3 47  1  0
  4 48  1  0
  4 49  1  0
  5 50  1  0
  5 51  1  0
  6 52  1  0
  6 53  1  0
  7 54  1  0
  7 55  1  0
  8 56  1  0
  9 57  1  0
 10 58  1  0
 15 59  1  0
 16 60  1  0
 17 61  1  0
 17 62  1  0
 20 63  1  0
 20 64  1  0
 20 65  1  0
 21 66  1  0
 21 67  1  0
 21 68  1  0
 22 69  1  0
 23 70  1  0
 23 71  1  0
 27 72  1  0
 28 73  1  0
 33 74  1  0
 36 75  1  0
 37 76  1  0
 39 77  1  0
 40 78  1  0
M  END
>  <Name>  (400) 
Japoangelol D

>  <PubChem ID>  (400) 
10674138

>  <CDB ID>  (400) 
CDB0400

>  <Smiles>  (400) 
CCCCCCCC=CC(C#CC#CC(C=C)OC(C)(C)C(COC1=C2C=CC(=O)OC2=CC3=C1C=CO3)O)O

>  <Chemical class>  (400) 
5,7-Dioxygenated Coumarins

>  <Natural source>  (400) 
Angelica japonica

>  <Molecular Formula>  (400) 
C33H38O7

>  <InChI-Key>  (400) 
ZUIYHSOAFCLTEN-UHFFFAOYSA-N

>  <Total Molweight>  (400) 
546.658

>  <cLogP>  (400) 
6.8911

>  <cLogS>  (400) 
-10.888

>  <H-Acceptors>  (400) 
7

>  <H-Donors>  (400) 
2

>  <Rotatable Bonds>  (400) 
15

>  <Polar Surface Area>  (400) 
98.36

$$$$
CDB0401
     RDKit          3D

 37 39  0  0  0  0  0  0  0  0999 V2000
    3.6912   -0.3241    0.9871 C   0  0  0  0  0  0  0  0  0  0  0  0
    3.5304   -0.2712   -0.5377 C   0  0  0  0  0  0  0  0  0  0  0  0
    3.7552    1.1662   -1.0279 C   0  0  0  0  0  0  0  0  0  0  0  0
    4.8597   -1.2781   -1.2496 Cl  0  0  0  0  0  0  0  0  0  0  0  0
    2.1625   -0.8382   -1.0266 C   0  0  1  0  0  0  0  0  0  0  0  0
    2.0109   -2.2263   -0.6674 O   0  0  0  0  0  0  0  0  0  0  0  0
    0.9365   -0.0686   -0.4948 C   0  0  0  0  0  0  0  0  0  0  0  0
   -0.2198   -0.4553   -1.2638 O   0  0  0  0  0  0  0  0  0  0  0  0
   -1.3636   -0.3361   -0.5065 C   0  0  0  0  0  0  0  0  0  0  0  0
   -1.8115   -1.4288    0.2662 C   0  0  0  0  0  0  0  0  0  0  0  0
   -1.3721   -2.7602    0.5028 C   0  0  0  0  0  0  0  0  0  0  0  0
   -2.2681   -3.3152    1.3866 C   0  0  0  0  0  0  0  0  0  0  0  0
   -3.2354   -2.4186    1.7127 O   0  0  0  0  0  0  0  0  0  0  0  0
   -2.9675   -1.2752    1.0233 C   0  0  0  0  0  0  0  0  0  0  0  0
   -3.7320   -0.1143    1.0600 C   0  0  0  0  0  0  0  0  0  0  0  0
   -3.2800    0.9298    0.2474 C   0  0  0  0  0  0  0  0  0  0  0  0
   -2.1292    0.8450   -0.5427 C   0  0  0  0  0  0  0  0  0  0  0  0
   -1.7844    1.9875   -1.3823 C   0  0  0  0  0  0  0  0  0  0  0  0
   -2.5380    3.0906   -1.3596 C   0  0  0  0  0  0  0  0  0  0  0  0
   -3.7298    3.2151   -0.5055 C   0  0  0  0  0  0  0  0  0  0  0  0
   -4.3841    4.2505   -0.4881 O   0  0  0  0  0  0  0  0  0  0  0  0
   -4.0614    2.1094    0.2637 O   0  0  0  0  0  0  0  0  0  0  0  0
    3.6141   -1.3457    1.3736 H   0  0  0  0  0  0  0  0  0  0  0  0
    4.6679    0.0672    1.2961 H   0  0  0  0  0  0  0  0  0  0  0  0
    2.9301    0.2823    1.4892 H   0  0  0  0  0  0  0  0  0  0  0  0
    3.0694    1.8714   -0.5478 H   0  0  0  0  0  0  0  0  0  0  0  0
    3.6128    1.2439   -2.1117 H   0  0  0  0  0  0  0  0  0  0  0  0
    4.7709    1.5115   -0.8004 H   0  0  0  0  0  0  0  0  0  0  0  0
    2.1349   -0.8158   -2.1234 H   0  0  0  0  0  0  0  0  0  0  0  0
    2.0083   -2.3075    0.3001 H   0  0  0  0  0  0  0  0  0  0  0  0
    1.0600    1.0104   -0.6196 H   0  0  0  0  0  0  0  0  0  0  0  0
    0.7940   -0.2921    0.5705 H   0  0  0  0  0  0  0  0  0  0  0  0
   -0.5135   -3.2522    0.0671 H   0  0  0  0  0  0  0  0  0  0  0  0
   -2.3574   -4.2872    1.8519 H   0  0  0  0  0  0  0  0  0  0  0  0
   -4.6269   -0.0382    1.6644 H   0  0  0  0  0  0  0  0  0  0  0  0
   -0.9229    1.9176   -2.0375 H   0  0  0  0  0  0  0  0  0  0  0  0
   -2.3110    3.9504   -1.9783 H   0  0  0  0  0  0  0  0  0  0  0  0
  1  2  1  0
  2  3  1  0
  2  4  1  0
  2  5  1  0
  5  6  1  0
  5  7  1  0
  7  8  1  0
  8  9  1  0
  9 10  2  0
 10 11  1  0
 11 12  2  0
 12 13  1  0
 13 14  1  0
 14 15  2  0
 15 16  1  0
 16 17  2  0
 17 18  1  0
 18 19  2  0
 19 20  1  0
 20 21  2  0
 20 22  1  0
 17  9  1  0
 14 10  1  0
 22 16  1  0
  1 23  1  0
  1 24  1  0
  1 25  1  0
  3 26  1  0
  3 27  1  0
  3 28  1  0
  5 29  1  6
  6 30  1  0
  7 31  1  0
  7 32  1  0
 11 33  1  0
 12 34  1  0
 15 35  1  0
 18 36  1  0
 19 37  1  0
M  END
>  <Name>  (401) 
Saxalin

>  <PubChem ID>  (401) 
182277

>  <CDB ID>  (401) 
CDB0401

>  <Smiles>  (401) 
CC(C)(Cl)[C@@H](O)COC1=C2C=COC2=CC2=C1C=CC(=O)O2

>  <Chemical class>  (401) 
5,7-Dioxygenated Coumarins

>  <Natural source>  (401) 
Angelica saxatilis

>  <Molecular Formula>  (401) 
C16H15ClO5

>  <InChI-Key>  (401) 
QPHPWCUVCZXUEP-ZDUSSCGKSA-N

>  <Total Molweight>  (401) 
322.743

>  <cLogP>  (401) 
2.7393

>  <cLogS>  (401) 
-4.497

>  <H-Acceptors>  (401) 
5

>  <H-Donors>  (401) 
1

>  <Rotatable Bonds>  (401) 
4

>  <Polar Surface Area>  (401) 
68.9

$$$$
CDB0402
     RDKit          3D

 48 50  0  0  0  0  0  0  0  0999 V2000
   -1.4988    2.3691   -1.2241 C   0  0  0  0  0  0  0  0  0  0  0  0
   -1.6239    0.9090   -1.5760 C   0  0  0  0  0  0  0  0  0  0  0  0
   -0.5917    0.0446   -1.6639 C   0  0  0  0  0  0  0  0  0  0  0  0
    0.8641    0.2907   -1.4003 C   0  0  0  0  0  0  0  0  0  0  0  0
    1.2622   -0.6380   -0.3811 O   0  0  0  0  0  0  0  0  0  0  0  0
    2.4063   -0.2015    0.2516 C   0  0  0  0  0  0  0  0  0  0  0  0
    3.6513   -0.7724   -0.0741 C   0  0  0  0  0  0  0  0  0  0  0  0
    3.8028   -1.8117   -1.0870 C   0  0  0  0  0  0  0  0  0  0  0  0
    5.0119   -2.3069   -1.3659 C   0  0  0  0  0  0  0  0  0  0  0  0
    6.2311   -1.8433   -0.6848 C   0  0  0  0  0  0  0  0  0  0  0  0
    7.3269   -2.3087   -0.9738 O   0  0  0  0  0  0  0  0  0  0  0  0
    6.0680   -0.8665    0.2867 O   0  0  0  0  0  0  0  0  0  0  0  0
    4.7951   -0.3336    0.5995 C   0  0  0  0  0  0  0  0  0  0  0  0
    4.7678    0.6364    1.6059 C   0  0  0  0  0  0  0  0  0  0  0  0
    3.5100    1.1411    1.9175 C   0  0  0  0  0  0  0  0  0  0  0  0
    2.3318    0.7549    1.2878 C   0  0  0  0  0  0  0  0  0  0  0  0
    1.2977    1.4964    1.9231 C   0  0  0  0  0  0  0  0  0  0  0  0
    1.9075    2.2806    2.8744 C   0  0  0  0  0  0  0  0  0  0  0  0
    3.2501    2.0734    2.8754 O   0  0  0  0  0  0  0  0  0  0  0  0
   -3.0445    0.4601   -1.8582 C   0  0  0  0  0  0  0  0  0  0  0  0
   -3.5652   -0.7758   -1.0972 C   0  0  0  0  0  0  0  0  0  0  0  0
   -3.8193   -0.6263    0.4247 C   0  0  0  0  0  0  0  0  0  0  0  0
   -4.5165   -1.9037    0.9304 C   0  0  0  0  0  0  0  0  0  0  0  0
   -2.5353   -0.4313    1.2393 C   0  0  0  0  0  0  0  0  0  0  0  0
   -4.7876    0.5281    0.6585 C   0  0  0  0  0  0  0  0  0  0  0  0
   -4.4998    1.5751    1.2305 O   0  0  0  0  0  0  0  0  0  0  0  0
   -2.0889    2.5948   -0.3298 H   0  0  0  0  0  0  0  0  0  0  0  0
   -1.8756    2.9842   -2.0482 H   0  0  0  0  0  0  0  0  0  0  0  0
   -0.4747    2.6882   -1.0245 H   0  0  0  0  0  0  0  0  0  0  0  0
   -0.8006   -0.9840   -1.9541 H   0  0  0  0  0  0  0  0  0  0  0  0
    1.0694    1.3257   -1.1152 H   0  0  0  0  0  0  0  0  0  0  0  0
    1.4310    0.0720   -2.3129 H   0  0  0  0  0  0  0  0  0  0  0  0
    2.9195   -2.1804   -1.5976 H   0  0  0  0  0  0  0  0  0  0  0  0
    5.1538   -3.0817   -2.1095 H   0  0  0  0  0  0  0  0  0  0  0  0
    5.6598    0.9658    2.1232 H   0  0  0  0  0  0  0  0  0  0  0  0
    0.2387    1.4593    1.7097 H   0  0  0  0  0  0  0  0  0  0  0  0
    1.5457    3.0004    3.5957 H   0  0  0  0  0  0  0  0  0  0  0  0
   -3.7384    1.2937   -1.6936 H   0  0  0  0  0  0  0  0  0  0  0  0
   -3.1093    0.2492   -2.9347 H   0  0  0  0  0  0  0  0  0  0  0  0
   -4.5171   -1.0474   -1.5762 H   0  0  0  0  0  0  0  0  0  0  0  0
   -2.8991   -1.6302   -1.2715 H   0  0  0  0  0  0  0  0  0  0  0  0
   -4.7691   -1.8232    1.9943 H   0  0  0  0  0  0  0  0  0  0  0  0
   -5.4540   -2.0887    0.3928 H   0  0  0  0  0  0  0  0  0  0  0  0
   -3.8755   -2.7827    0.8004 H   0  0  0  0  0  0  0  0  0  0  0  0
   -2.7435   -0.4785    2.3151 H   0  0  0  0  0  0  0  0  0  0  0  0
   -2.0751    0.5438    1.0642 H   0  0  0  0  0  0  0  0  0  0  0  0
   -1.7977   -1.2083    1.0113 H   0  0  0  0  0  0  0  0  0  0  0  0
   -5.8014    0.3883    0.2424 H   0  0  0  0  0  0  0  0  0  0  0  0
  1  2  1  0
  2  3  2  3
  3  4  1  0
  4  5  1  0
  5  6  1  0
  6  7  1  0
  7  8  1  0
  8  9  2  0
  9 10  1  0
 10 11  2  0
 10 12  1  0
 12 13  1  0
 13 14  1  0
 14 15  2  0
 15 16  1  0
 16 17  1  0
 17 18  2  0
 18 19  1  0
  2 20  1  0
 20 21  1  0
 21 22  1  0
 22 23  1  0
 22 24  1  0
 22 25  1  0
 25 26  2  0
 16  6  2  0
 13  7  2  0
 19 15  1  0
  1 27  1  0
  1 28  1  0
  1 29  1  0
  3 30  1  0
  4 31  1  0
  4 32  1  0
  8 33  1  0
  9 34  1  0
 14 35  1  0
 17 36  1  0
 18 37  1  0
 20 38  1  0
 20 39  1  0
 21 40  1  0
 21 41  1  0
 23 42  1  0
 23 43  1  0
 23 44  1  0
 24 45  1  0
 24 46  1  0
 24 47  1  0
 25 48  1  0
M  END
>  <Name>  (402) 
Aurantiumal

>  <PubChem ID>  (402) 
122201415

>  <CDB ID>  (402) 
CDB0402

>  <Smiles>  (402) 
CC(=CCOC1=C2C=CC(=O)OC2=CC3=C1C=CO3)CCC(C)(C)C=O

>  <Chemical class>  (402) 
5,7-Dioxygenated Coumarins

>  <Natural source>  (402) 
Citrus paradisi

>  <Molecular Formula>  (402) 
C21H22O5

>  <InChI-Key>  (402) 
JBBNVKWFZYFPIG-UHFFFAOYSA-N

>  <Total Molweight>  (402) 
354.401

>  <cLogP>  (402) 
4.5566

>  <cLogS>  (402) 
-5.138

>  <H-Acceptors>  (402) 
5

>  <H-Donors>  (402) 
0

>  <Rotatable Bonds>  (402) 
7

>  <Polar Surface Area>  (402) 
65.74

$$$$
CDB0403
     RDKit          3D

 47 49  0  0  0  0  0  0  0  0999 V2000
    5.1921    1.0069   -1.1050 C   0  0  0  0  0  0  0  0  0  0  0  0
    3.9061    1.1581   -1.8698 C   0  0  0  0  0  0  0  0  0  0  0  0
    2.7833    0.4481   -1.6450 C   0  0  0  0  0  0  0  0  0  0  0  0
    2.5804   -0.6547   -0.6413 C   0  0  0  0  0  0  0  0  0  0  0  0
    1.8023   -0.1583    0.5811 C   0  0  0  0  0  0  0  0  0  0  0  0
    1.5400   -1.2631    1.5839 C   0  0  0  0  0  0  0  0  0  0  0  0
    0.3914   -1.9658    1.6606 C   0  0  0  0  0  0  0  0  0  0  0  0
   -0.8119   -1.8613    0.7704 C   0  0  0  0  0  0  0  0  0  0  0  0
   -1.8870   -1.3565    1.5709 O   0  0  0  0  0  0  0  0  0  0  0  0
   -2.8187   -0.7210    0.7762 C   0  0  0  0  0  0  0  0  0  0  0  0
   -2.8647    0.6869    0.7577 C   0  0  0  0  0  0  0  0  0  0  0  0
   -1.9469    1.5155    1.5325 C   0  0  0  0  0  0  0  0  0  0  0  0
   -2.0222    2.8476    1.4626 C   0  0  0  0  0  0  0  0  0  0  0  0
   -3.0120    3.5383    0.6211 C   0  0  0  0  0  0  0  0  0  0  0  0
   -3.0493    4.7619    0.5707 O   0  0  0  0  0  0  0  0  0  0  0  0
   -3.8850    2.7359   -0.0997 O   0  0  0  0  0  0  0  0  0  0  0  0
   -3.8208    1.3241   -0.0373 C   0  0  0  0  0  0  0  0  0  0  0  0
   -4.7580    0.6322   -0.8097 C   0  0  0  0  0  0  0  0  0  0  0  0
   -4.6932   -0.7550   -0.7314 C   0  0  0  0  0  0  0  0  0  0  0  0
   -3.7682   -1.4570    0.0349 C   0  0  0  0  0  0  0  0  0  0  0  0
   -4.0758   -2.8316   -0.1605 C   0  0  0  0  0  0  0  0  0  0  0  0
   -5.1411   -2.8743   -1.0298 C   0  0  0  0  0  0  0  0  0  0  0  0
   -5.5193   -1.6189   -1.3836 O   0  0  0  0  0  0  0  0  0  0  0  0
    2.6618   -1.5209    2.5573 C   0  0  0  0  0  0  0  0  0  0  0  0
    3.9458    2.2119   -2.9461 C   0  0  0  0  0  0  0  0  0  0  0  0
    5.9767    0.6169   -1.7613 H   0  0  0  0  0  0  0  0  0  0  0  0
    5.1090    0.3388   -0.2447 H   0  0  0  0  0  0  0  0  0  0  0  0
    5.5170    1.9796   -0.7200 H   0  0  0  0  0  0  0  0  0  0  0  0
    1.9048    0.6610   -2.2546 H   0  0  0  0  0  0  0  0  0  0  0  0
    2.0227   -1.4608   -1.1355 H   0  0  0  0  0  0  0  0  0  0  0  0
    3.5329   -1.1004   -0.3377 H   0  0  0  0  0  0  0  0  0  0  0  0
    2.3591    0.6483    1.0768 H   0  0  0  0  0  0  0  0  0  0  0  0
    0.8614    0.3054    0.2623 H   0  0  0  0  0  0  0  0  0  0  0  0
    0.2907   -2.7185    2.4417 H   0  0  0  0  0  0  0  0  0  0  0  0
   -1.0714   -2.8652    0.4148 H   0  0  0  0  0  0  0  0  0  0  0  0
   -0.6198   -1.2337   -0.1073 H   0  0  0  0  0  0  0  0  0  0  0  0
   -1.2107    1.0319    2.1668 H   0  0  0  0  0  0  0  0  0  0  0  0
   -1.3550    3.4866    2.0280 H   0  0  0  0  0  0  0  0  0  0  0  0
   -5.4965    1.1361   -1.4199 H   0  0  0  0  0  0  0  0  0  0  0  0
   -3.5823   -3.6841    0.2839 H   0  0  0  0  0  0  0  0  0  0  0  0
   -5.7188   -3.6761   -1.4687 H   0  0  0  0  0  0  0  0  0  0  0  0
    2.4181   -2.3165    3.2694 H   0  0  0  0  0  0  0  0  0  0  0  0
    2.8794   -0.6160    3.1340 H   0  0  0  0  0  0  0  0  0  0  0  0
    3.5695   -1.8215    2.0247 H   0  0  0  0  0  0  0  0  0  0  0  0
    4.1620    3.1924   -2.5095 H   0  0  0  0  0  0  0  0  0  0  0  0
    2.9967    2.2906   -3.4866 H   0  0  0  0  0  0  0  0  0  0  0  0
    4.7259    1.9762   -3.6774 H   0  0  0  0  0  0  0  0  0  0  0  0
  1  2  1  0
  2  3  2  3
  3  4  1  0
  4  5  1  0
  5  6  1  0
  6  7  2  3
  7  8  1  0
  8  9  1  0
  9 10  1  0
 10 11  1  0
 11 12  1  0
 12 13  2  0
 13 14  1  0
 14 15  2  0
 14 16  1  0
 16 17  1  0
 17 18  1  0
 18 19  2  0
 19 20  1  0
 20 21  1  0
 21 22  2  0
 22 23  1  0
  6 24  1  0
  2 25  1  0
 20 10  2  0
 17 11  2  0
 23 19  1  0
  1 26  1  0
  1 27  1  0
  1 28  1  0
  3 29  1  0
  4 30  1  0
  4 31  1  0
  5 32  1  0
  5 33  1  0
  7 34  1  0
  8 35  1  0
  8 36  1  0
 12 37  1  0
 13 38  1  0
 18 39  1  0
 21 40  1  0
 22 41  1  0
 24 42  1  0
 24 43  1  0
 24 44  1  0
 25 45  1  0
 25 46  1  0
 25 47  1  0
M  END
>  <Name>  (403) 
Bergamottin (Bergaptin)

>  <PubChem ID>  (403) 
5471349

>  <CDB ID>  (403) 
CDB0403

>  <Smiles>  (403) 
CC(=CCCC(=CCOC1=C2C=CC(=O)OC2=CC3=C1C=CO3)C)C

>  <Chemical class>  (403) 
5,7-Dioxygenated Coumarins

>  <Natural source>  (403) 
Citrus bergamia

>  <Molecular Formula>  (403) 
C21H22O4

>  <InChI-Key>  (403) 
DBMJZOMNXBSRED-UHFFFAOYSA-N

>  <Total Molweight>  (403) 
338.402

>  <cLogP>  (403) 
5.7201

>  <cLogS>  (403) 
-5.259

>  <H-Acceptors>  (403) 
4

>  <H-Donors>  (403) 
0

>  <Rotatable Bonds>  (403) 
6

>  <Polar Surface Area>  (403) 
48.67

$$$$
CDB0404
     RDKit          3D

 45 47  0  0  0  0  0  0  0  0999 V2000
   -6.3041    0.0847    1.1217 C   0  0  0  0  0  0  0  0  0  0  0  0
   -5.9247   -1.2574    0.5556 C   0  0  0  0  0  0  0  0  0  0  0  0
   -6.7108   -2.3289    0.7528 C   0  0  0  0  0  0  0  0  0  0  0  0
   -4.6943   -1.3938   -0.2103 C   0  0  0  0  0  0  0  0  0  0  0  0
   -3.8198   -0.4119   -0.4849 C   0  0  0  0  0  0  0  0  0  0  0  0
   -2.5629   -0.6131   -1.2848 C   0  0  0  0  0  0  0  0  0  0  0  0
   -1.3215   -0.3042   -0.4687 C   0  0  0  0  0  0  0  0  0  0  0  0
   -0.5872    0.7970   -0.7329 C   0  0  0  0  0  0  0  0  0  0  0  0
    0.6512    1.2809   -0.0390 C   0  0  0  0  0  0  0  0  0  0  0  0
    1.7188    1.2141   -0.9923 O   0  0  0  0  0  0  0  0  0  0  0  0
    2.9355    1.1492   -0.3452 C   0  0  0  0  0  0  0  0  0  0  0  0
    3.6119   -0.0842   -0.2681 C   0  0  0  0  0  0  0  0  0  0  0  0
    3.0673   -1.3175   -0.8265 C   0  0  0  0  0  0  0  0  0  0  0  0
    3.7440   -2.4636   -0.7101 C   0  0  0  0  0  0  0  0  0  0  0  0
    5.0452   -2.5455   -0.0281 C   0  0  0  0  0  0  0  0  0  0  0  0
    5.6360   -3.6142    0.0709 O   0  0  0  0  0  0  0  0  0  0  0  0
    5.5537   -1.3620    0.4878 O   0  0  0  0  0  0  0  0  0  0  0  0
    4.8527   -0.1388    0.3721 C   0  0  0  0  0  0  0  0  0  0  0  0
    5.4754    0.9809    0.9306 C   0  0  0  0  0  0  0  0  0  0  0  0
    4.7834    2.1804    0.7992 C   0  0  0  0  0  0  0  0  0  0  0  0
    3.5451    2.3097    0.1782 C   0  0  0  0  0  0  0  0  0  0  0  0
    3.2256    3.6937    0.2493 C   0  0  0  0  0  0  0  0  0  0  0  0
    4.2669    4.3021    0.9109 C   0  0  0  0  0  0  0  0  0  0  0  0
    5.2143    3.3905    1.2510 O   0  0  0  0  0  0  0  0  0  0  0  0
   -0.9877   -1.3265    0.5866 C   0  0  0  0  0  0  0  0  0  0  0  0
   -5.5370    0.4439    1.8163 H   0  0  0  0  0  0  0  0  0  0  0  0
   -7.2485    0.0430    1.6758 H   0  0  0  0  0  0  0  0  0  0  0  0
   -6.4308    0.8217    0.3214 H   0  0  0  0  0  0  0  0  0  0  0  0
   -7.6337   -2.2563    1.3204 H   0  0  0  0  0  0  0  0  0  0  0  0
   -6.4634   -3.3094    0.3574 H   0  0  0  0  0  0  0  0  0  0  0  0
   -4.4772   -2.3938   -0.5861 H   0  0  0  0  0  0  0  0  0  0  0  0
   -3.9937    0.6025   -0.1362 H   0  0  0  0  0  0  0  0  0  0  0  0
   -2.6189    0.0357   -2.1682 H   0  0  0  0  0  0  0  0  0  0  0  0
   -2.4935   -1.6372   -1.6725 H   0  0  0  0  0  0  0  0  0  0  0  0
   -0.9101    1.4531   -1.5408 H   0  0  0  0  0  0  0  0  0  0  0  0
    0.4990    2.3255    0.2565 H   0  0  0  0  0  0  0  0  0  0  0  0
    0.8731    0.7051    0.8654 H   0  0  0  0  0  0  0  0  0  0  0  0
    2.1121   -1.2843   -1.3408 H   0  0  0  0  0  0  0  0  0  0  0  0
    3.3655   -3.3931   -1.1175 H   0  0  0  0  0  0  0  0  0  0  0  0
    6.4385    0.9280    1.4219 H   0  0  0  0  0  0  0  0  0  0  0  0
    2.3450    4.1845   -0.1397 H   0  0  0  0  0  0  0  0  0  0  0  0
    4.4769    5.3226    1.2006 H   0  0  0  0  0  0  0  0  0  0  0  0
   -1.7121   -1.2811    1.4059 H   0  0  0  0  0  0  0  0  0  0  0  0
    0.0092   -1.1978    1.0136 H   0  0  0  0  0  0  0  0  0  0  0  0
   -1.0145   -2.3340    0.1573 H   0  0  0  0  0  0  0  0  0  0  0  0
  1  2  1  0
  2  3  2  0
  2  4  1  0
  4  5  2  3
  5  6  1  0
  6  7  1  0
  7  8  2  3
  8  9  1  0
  9 10  1  0
 10 11  1  0
 11 12  1  0
 12 13  1  0
 13 14  2  0
 14 15  1  0
 15 16  2  0
 15 17  1  0
 17 18  1  0
 18 19  1  0
 19 20  2  0
 20 21  1  0
 21 22  1  0
 22 23  2  0
 23 24  1  0
  7 25  1  0
 21 11  2  0
 18 12  2  0
 24 20  1  0
  1 26  1  0
  1 27  1  0
  1 28  1  0
  3 29  1  0
  3 30  1  0
  4 31  1  0
  5 32  1  0
  6 33  1  0
  6 34  1  0
  8 35  1  0
  9 36  1  0
  9 37  1  0
 13 38  1  0
 14 39  1  0
 19 40  1  0
 22 41  1  0
 23 42  1  0
 25 43  1  0
 25 44  1  0
 25 45  1  0
M  END
>  <Name>  (404) 
Anhydronotoptol

>  <PubChem ID>  (404) 
5319004

>  <CDB ID>  (404) 
CDB0404

>  <Smiles>  (404) 
CC(=C)C=CCC(=CCOC1=C2C=CC(=O)OC2=CC3=C1C=CO3)C

>  <Chemical class>  (404) 
5,7-Dioxygenated Coumarins

>  <Natural source>  (404) 
Notopterygium incisum

>  <Molecular Formula>  (404) 
C21H20O4

>  <InChI-Key>  (404) 
SFUVOLKWTCFJSX-UHFFFAOYSA-N

>  <Total Molweight>  (404) 
336.386

>  <cLogP>  (404) 
5.5346

>  <cLogS>  (404) 
-5.198

>  <H-Acceptors>  (404) 
4

>  <H-Donors>  (404) 
0

>  <Rotatable Bonds>  (404) 
6

>  <Polar Surface Area>  (404) 
48.67

$$$$
CDB0405
     RDKit          3D

 48 50  0  0  0  0  0  0  0  0999 V2000
    3.5161   -3.7716    1.4295 C   0  0  0  0  0  0  0  0  0  0  0  0
    3.7035   -2.3170    1.0829 C   0  0  0  0  0  0  0  0  0  0  0  0
    4.9768   -2.0211    0.3375 C   0  0  0  0  0  0  0  0  0  0  0  0
    2.7666   -1.4050    1.4156 C   0  0  0  0  0  0  0  0  0  0  0  0
    2.7638    0.0904    1.2049 C   0  0  1  0  0  0  0  0  0  0  0  0
    4.0598    0.6255    1.4554 O   0  0  0  0  0  0  0  0  0  0  0  0
    2.2812    0.4712   -0.2066 C   0  0  0  0  0  0  0  0  0  0  0  0
    1.7972    1.9090   -0.3120 C   0  0  0  0  0  0  0  0  0  0  0  0
    2.8847    2.9366   -0.5019 C   0  0  0  0  0  0  0  0  0  0  0  0
    0.5014    2.2846   -0.2856 C   0  0  0  0  0  0  0  0  0  0  0  0
   -0.7090    1.4221   -0.0839 C   0  0  0  0  0  0  0  0  0  0  0  0
   -1.4785    1.4754   -1.2911 O   0  0  0  0  0  0  0  0  0  0  0  0
   -2.5589    0.6224   -1.2022 C   0  0  0  0  0  0  0  0  0  0  0  0
   -2.4141   -0.7529   -1.4872 C   0  0  0  0  0  0  0  0  0  0  0  0
   -1.3485   -1.6112   -1.8757 C   0  0  0  0  0  0  0  0  0  0  0  0
   -1.8831   -2.8738   -1.9837 C   0  0  0  0  0  0  0  0  0  0  0  0
   -3.2100   -2.8570   -1.6934 O   0  0  0  0  0  0  0  0  0  0  0  0
   -3.5379   -1.5679   -1.4019 C   0  0  0  0  0  0  0  0  0  0  0  0
   -4.8106   -1.1173   -1.0687 C   0  0  0  0  0  0  0  0  0  0  0  0
   -4.9206    0.2562   -0.8327 C   0  0  0  0  0  0  0  0  0  0  0  0
   -3.8359    1.1353   -0.9028 C   0  0  0  0  0  0  0  0  0  0  0  0
   -4.0813    2.5539   -0.6647 C   0  0  0  0  0  0  0  0  0  0  0  0
   -5.3113    2.9828   -0.3675 C   0  0  0  0  0  0  0  0  0  0  0  0
   -6.4615    2.0709   -0.2641 C   0  0  0  0  0  0  0  0  0  0  0  0
   -7.5740    2.4936    0.0265 O   0  0  0  0  0  0  0  0  0  0  0  0
   -6.2150    0.7281   -0.5111 O   0  0  0  0  0  0  0  0  0  0  0  0
    3.4861   -4.3786    0.5188 H   0  0  0  0  0  0  0  0  0  0  0  0
    4.3447   -4.1207    2.0544 H   0  0  0  0  0  0  0  0  0  0  0  0
    2.5867   -3.9521    1.9800 H   0  0  0  0  0  0  0  0  0  0  0  0
    4.9999   -1.0210   -0.1005 H   0  0  0  0  0  0  0  0  0  0  0  0
    5.8372   -2.1243    1.0062 H   0  0  0  0  0  0  0  0  0  0  0  0
    5.0995   -2.7258   -0.4922 H   0  0  0  0  0  0  0  0  0  0  0  0
    1.8659   -1.7624    1.9158 H   0  0  0  0  0  0  0  0  0  0  0  0
    2.0968    0.5286    1.9577 H   0  0  0  0  0  0  0  0  0  0  0  0
    4.4009    0.1736    2.2457 H   0  0  0  0  0  0  0  0  0  0  0  0
    3.0921    0.3281   -0.9330 H   0  0  0  0  0  0  0  0  0  0  0  0
    1.4837   -0.2092   -0.5257 H   0  0  0  0  0  0  0  0  0  0  0  0
    3.5313    2.9820    0.3792 H   0  0  0  0  0  0  0  0  0  0  0  0
    3.4973    2.6870   -1.3743 H   0  0  0  0  0  0  0  0  0  0  0  0
    2.4796    3.9413   -0.6633 H   0  0  0  0  0  0  0  0  0  0  0  0
    0.2659    3.3415   -0.4053 H   0  0  0  0  0  0  0  0  0  0  0  0
   -1.2953    1.8377    0.7455 H   0  0  0  0  0  0  0  0  0  0  0  0
   -0.4420    0.3933    0.1763 H   0  0  0  0  0  0  0  0  0  0  0  0
   -0.3194   -1.3355   -2.0583 H   0  0  0  0  0  0  0  0  0  0  0  0
   -1.4757   -3.8401   -2.2474 H   0  0  0  0  0  0  0  0  0  0  0  0
   -5.6585   -1.7881   -1.0151 H   0  0  0  0  0  0  0  0  0  0  0  0
   -3.2539    3.2511   -0.7461 H   0  0  0  0  0  0  0  0  0  0  0  0
   -5.5234    4.0303   -0.1912 H   0  0  0  0  0  0  0  0  0  0  0  0
  1  2  1  0
  2  3  1  0
  2  4  2  3
  4  5  1  0
  5  6  1  0
  5  7  1  0
  7  8  1  0
  8  9  1  0
  8 10  2  3
 10 11  1  0
 11 12  1  0
 12 13  1  0
 13 14  2  0
 14 15  1  0
 15 16  2  0
 16 17  1  0
 17 18  1  0
 18 19  2  0
 19 20  1  0
 20 21  2  0
 21 22  1  0
 22 23  2  0
 23 24  1  0
 24 25  2  0
 24 26  1  0
 21 13  1  0
 18 14  1  0
 26 20  1  0
  1 27  1  0
  1 28  1  0
  1 29  1  0
  3 30  1  0
  3 31  1  0
  3 32  1  0
  4 33  1  0
  5 34  1  1
  6 35  1  0
  7 36  1  0
  7 37  1  0
  9 38  1  0
  9 39  1  0
  9 40  1  0
 10 41  1  0
 11 42  1  0
 11 43  1  0
 15 44  1  0
 16 45  1  0
 19 46  1  0
 22 47  1  0
 23 48  1  0
M  END
>  <Name>  (405) 
Notopterol

>  <PubChem ID>  (405) 
5320227

>  <CDB ID>  (405) 
CDB0405

>  <Smiles>  (405) 
CC(C)=C[C@@H](O)CC(C)=CCOC1=C2C=COC2=CC2=C1C=CC(=O)O2

>  <Chemical class>  (405) 
5,7-Dioxygenated Coumarins

>  <Natural source>  (405) 
Notopterygium incisum

>  <Molecular Formula>  (405) 
C21H22O5

>  <InChI-Key>  (405) 
BKIACVAZUKISOR-OAHLLOKOSA-N

>  <Total Molweight>  (405) 
354.401

>  <cLogP>  (405) 
4.6983

>  <cLogS>  (405) 
-4.86

>  <H-Acceptors>  (405) 
5

>  <H-Donors>  (405) 
1

>  <Rotatable Bonds>  (405) 
6

>  <Polar Surface Area>  (405) 
68.9

$$$$
CDB0406
     RDKit          3D

 54 56  0  0  0  0  0  0  0  0999 V2000
    0.4223   -3.0461    1.4270 C   0  0  0  0  0  0  0  0  0  0  0  0
    0.4868   -1.7749    2.2549 C   0  0  0  0  0  0  0  0  0  0  0  0
    0.7358   -0.6487    1.4160 O   0  0  0  0  0  0  0  0  0  0  0  0
    2.1281   -0.3972    1.1691 C   0  0  2  0  0  0  0  0  0  0  0  0
    2.6513    0.4640    2.2899 C   0  0  0  0  0  0  0  0  0  0  0  0
    3.7961    0.3236    2.9878 C   0  0  0  0  0  0  0  0  0  0  0  0
    4.1323    1.2784    4.1038 C   0  0  0  0  0  0  0  0  0  0  0  0
    4.8329   -0.7384    2.7492 C   0  0  0  0  0  0  0  0  0  0  0  0
    2.2801    0.2589   -0.2261 C   0  0  0  0  0  0  0  0  0  0  0  0
    1.6825    1.6466   -0.4139 C   0  0  0  0  0  0  0  0  0  0  0  0
    2.6578    2.7902   -0.2958 C   0  0  0  0  0  0  0  0  0  0  0  0
    0.3880    1.8851   -0.7109 C   0  0  0  0  0  0  0  0  0  0  0  0
   -0.7152    0.8807   -0.8764 C   0  0  0  0  0  0  0  0  0  0  0  0
   -1.3442    1.1461   -2.1399 O   0  0  0  0  0  0  0  0  0  0  0  0
   -2.3925    0.2701   -2.3377 C   0  0  0  0  0  0  0  0  0  0  0  0
   -2.1614   -1.0431   -2.8032 C   0  0  0  0  0  0  0  0  0  0  0  0
   -1.0226   -1.8195   -3.1547 C   0  0  0  0  0  0  0  0  0  0  0  0
   -1.4931   -3.0557   -3.5314 C   0  0  0  0  0  0  0  0  0  0  0  0
   -2.8479   -3.0981   -3.4436 O   0  0  0  0  0  0  0  0  0  0  0  0
   -3.2576   -1.8739   -3.0098 C   0  0  0  0  0  0  0  0  0  0  0  0
   -4.5797   -1.4951   -2.8035 C   0  0  0  0  0  0  0  0  0  0  0  0
   -4.7691   -0.1774   -2.3774 C   0  0  0  0  0  0  0  0  0  0  0  0
   -3.7163    0.7139   -2.1514 C   0  0  0  0  0  0  0  0  0  0  0  0
   -4.0407    2.0725   -1.7292 C   0  0  0  0  0  0  0  0  0  0  0  0
   -5.3143    2.4354   -1.5525 C   0  0  0  0  0  0  0  0  0  0  0  0
   -6.4360    1.5079   -1.7679 C   0  0  0  0  0  0  0  0  0  0  0  0
   -7.5928    1.8686   -1.5869 O   0  0  0  0  0  0  0  0  0  0  0  0
   -6.1116    0.2239   -2.1814 O   0  0  0  0  0  0  0  0  0  0  0  0
    0.1512   -3.9014    2.0524 H   0  0  0  0  0  0  0  0  0  0  0  0
   -0.3177   -2.9451    0.6260 H   0  0  0  0  0  0  0  0  0  0  0  0
    1.3825   -3.2581    0.9472 H   0  0  0  0  0  0  0  0  0  0  0  0
   -0.4866   -1.6115    2.7289 H   0  0  0  0  0  0  0  0  0  0  0  0
    1.2326   -1.8546    3.0534 H   0  0  0  0  0  0  0  0  0  0  0  0
    2.6539   -1.3559    1.1255 H   0  0  0  0  0  0  0  0  0  0  0  0
    1.9832    1.2852    2.5513 H   0  0  0  0  0  0  0  0  0  0  0  0
    4.2512    0.7327    5.0455 H   0  0  0  0  0  0  0  0  0  0  0  0
    3.3542    2.0342    4.2538 H   0  0  0  0  0  0  0  0  0  0  0  0
    5.0677    1.8037    3.8846 H   0  0  0  0  0  0  0  0  0  0  0  0
    4.8919   -1.4073    3.6140 H   0  0  0  0  0  0  0  0  0  0  0  0
    4.6339   -1.3490    1.8659 H   0  0  0  0  0  0  0  0  0  0  0  0
    5.8157   -0.2777    2.6022 H   0  0  0  0  0  0  0  0  0  0  0  0
    1.8407   -0.4137   -0.9743 H   0  0  0  0  0  0  0  0  0  0  0  0
    3.3485    0.3020   -0.4783 H   0  0  0  0  0  0  0  0  0  0  0  0
    3.1148    2.8125    0.6975 H   0  0  0  0  0  0  0  0  0  0  0  0
    3.4530    2.6871   -1.0415 H   0  0  0  0  0  0  0  0  0  0  0  0
    2.1786    3.7616   -0.4582 H   0  0  0  0  0  0  0  0  0  0  0  0
    0.0630    2.9164   -0.8381 H   0  0  0  0  0  0  0  0  0  0  0  0
   -1.4392    1.0197   -0.0639 H   0  0  0  0  0  0  0  0  0  0  0  0
   -0.3445   -0.1466   -0.8508 H   0  0  0  0  0  0  0  0  0  0  0  0
    0.0121   -1.5079   -3.1339 H   0  0  0  0  0  0  0  0  0  0  0  0
   -1.0196   -3.9654   -3.8737 H   0  0  0  0  0  0  0  0  0  0  0  0
   -5.4030   -2.1756   -2.9783 H   0  0  0  0  0  0  0  0  0  0  0  0
   -3.2331    2.7795   -1.5709 H   0  0  0  0  0  0  0  0  0  0  0  0
   -5.5840    3.4376   -1.2427 H   0  0  0  0  0  0  0  0  0  0  0  0
  1  2  1  0
  2  3  1  0
  3  4  1  0
  4  5  1  0
  5  6  2  3
  6  7  1  0
  6  8  1  0
  4  9  1  0
  9 10  1  0
 10 11  1  0
 10 12  2  3
 12 13  1  0
 13 14  1  0
 14 15  1  0
 15 16  2  0
 16 17  1  0
 17 18  2  0
 18 19  1  0
 19 20  1  0
 20 21  2  0
 21 22  1  0
 22 23  2  0
 23 24  1  0
 24 25  2  0
 25 26  1  0
 26 27  2  0
 26 28  1  0
 23 15  1  0
 20 16  1  0
 28 22  1  0
  1 29  1  0
  1 30  1  0
  1 31  1  0
  2 32  1  0
  2 33  1  0
  4 34  1  6
  5 35  1  0
  7 36  1  0
  7 37  1  0
  7 38  1  0
  8 39  1  0
  8 40  1  0
  8 41  1  0
  9 42  1  0
  9 43  1  0
 11 44  1  0
 11 45  1  0
 11 46  1  0
 12 47  1  0
 13 48  1  0
 13 49  1  0
 17 50  1  0
 18 51  1  0
 21 52  1  0
 24 53  1  0
 25 54  1  0
M  END
>  <Name>  (406) 
Ethylnotopterol

>  <PubChem ID>  (406) 
5317258

>  <CDB ID>  (406) 
CDB0406

>  <Smiles>  (406) 
CCO[C@H](C=C(C)C)CC(C)=CCOC1=C2C=COC2=CC2=C1C=CC(=O)O2

>  <Chemical class>  (406) 
5,7-Dioxygenated Coumarins

>  <Natural source>  (406) 
Notopterygium incisum

>  <Molecular Formula>  (406) 
C23H26O5

>  <InChI-Key>  (406) 
HUIKFGYKROOMLM-QGZVFWFLSA-N

>  <Total Molweight>  (406) 
382.454

>  <cLogP>  (406) 
5.5325

>  <cLogS>  (406) 
-5.288

>  <H-Acceptors>  (406) 
5

>  <H-Donors>  (406) 
0

>  <Rotatable Bonds>  (406) 
8

>  <Polar Surface Area>  (406) 
57.9

$$$$
CDB0407
     RDKit          3D

 48 50  0  0  0  0  0  0  0  0999 V2000
    0.3149    2.7690    0.2001 C   0  0  0  0  0  0  0  0  0  0  0  0
    1.2360    1.8139    0.9123 C   0  0  0  0  0  0  0  0  0  0  0  0
    0.9079    1.0951    2.0065 C   0  0  0  0  0  0  0  0  0  0  0  0
   -0.3984    1.0567    2.7419 C   0  0  0  0  0  0  0  0  0  0  0  0
   -0.9493   -0.2592    2.5893 O   0  0  0  0  0  0  0  0  0  0  0  0
   -2.1367   -0.2226    1.8878 C   0  0  0  0  0  0  0  0  0  0  0  0
   -2.1786   -0.6965    0.5616 C   0  0  0  0  0  0  0  0  0  0  0  0
   -1.0071   -1.2218   -0.1316 C   0  0  0  0  0  0  0  0  0  0  0  0
   -1.1025   -1.6431   -1.3959 C   0  0  0  0  0  0  0  0  0  0  0  0
   -2.3641   -1.5969   -2.1492 C   0  0  0  0  0  0  0  0  0  0  0  0
   -2.4208   -1.9698   -3.3149 O   0  0  0  0  0  0  0  0  0  0  0  0
   -3.4739   -1.1109   -1.4713 O   0  0  0  0  0  0  0  0  0  0  0  0
   -3.3930   -0.6669   -0.1303 C   0  0  0  0  0  0  0  0  0  0  0  0
   -4.5870   -0.2091    0.4344 C   0  0  0  0  0  0  0  0  0  0  0  0
   -4.5017    0.2105    1.7571 C   0  0  0  0  0  0  0  0  0  0  0  0
   -3.3298    0.2134    2.5061 C   0  0  0  0  0  0  0  0  0  0  0  0
   -3.7005    0.6934    3.7929 C   0  0  0  0  0  0  0  0  0  0  0  0
   -5.0491    0.9583    3.7377 C   0  0  0  0  0  0  0  0  0  0  0  0
   -5.5421    0.6716    2.5051 O   0  0  0  0  0  0  0  0  0  0  0  0
    2.6203    1.6851    0.3069 C   0  0  0  0  0  0  0  0  0  0  0  0
    2.6106    0.8093   -0.9162 C   0  0  0  0  0  0  0  0  0  0  0  0
    3.1280   -0.4314   -0.9569 C   0  0  0  0  0  0  0  0  0  0  0  0
    3.1477   -1.3816   -2.1327 C   0  0  0  0  0  0  0  0  0  0  0  0
    2.4954   -0.8554   -3.4145 C   0  0  0  0  0  0  0  0  0  0  0  0
    4.5867   -1.8149   -2.4310 C   0  0  0  0  0  0  0  0  0  0  0  0
    2.4041   -2.5365   -1.7357 O   0  0  0  0  0  0  0  0  0  0  0  0
    0.1580    2.4492   -0.8351 H   0  0  0  0  0  0  0  0  0  0  0  0
   -0.6712    2.8507    0.6609 H   0  0  0  0  0  0  0  0  0  0  0  0
    0.7525    3.7728    0.1883 H   0  0  0  0  0  0  0  0  0  0  0  0
    1.6555    0.4223    2.4256 H   0  0  0  0  0  0  0  0  0  0  0  0
   -1.0850    1.8538    2.4397 H   0  0  0  0  0  0  0  0  0  0  0  0
   -0.2019    1.2048    3.8100 H   0  0  0  0  0  0  0  0  0  0  0  0
   -0.0593   -1.2711    0.3937 H   0  0  0  0  0  0  0  0  0  0  0  0
   -0.2461   -2.0409   -1.9275 H   0  0  0  0  0  0  0  0  0  0  0  0
   -5.5217   -0.1946   -0.1112 H   0  0  0  0  0  0  0  0  0  0  0  0
   -3.0601    0.8245    4.6532 H   0  0  0  0  0  0  0  0  0  0  0  0
   -5.7697    1.3318    4.4522 H   0  0  0  0  0  0  0  0  0  0  0  0
    3.0036    2.6773    0.0390 H   0  0  0  0  0  0  0  0  0  0  0  0
    3.3269    1.2913    1.0493 H   0  0  0  0  0  0  0  0  0  0  0  0
    2.1420    1.2379   -1.7984 H   0  0  0  0  0  0  0  0  0  0  0  0
    3.5779   -0.8199   -0.0440 H   0  0  0  0  0  0  0  0  0  0  0  0
    1.4429   -0.5976   -3.2499 H   0  0  0  0  0  0  0  0  0  0  0  0
    2.4975   -1.6265   -4.1942 H   0  0  0  0  0  0  0  0  0  0  0  0
    3.0147    0.0260   -3.8056 H   0  0  0  0  0  0  0  0  0  0  0  0
    5.0579   -2.2666   -1.5497 H   0  0  0  0  0  0  0  0  0  0  0  0
    5.2043   -0.9704   -2.7557 H   0  0  0  0  0  0  0  0  0  0  0  0
    4.6079   -2.5818   -3.2141 H   0  0  0  0  0  0  0  0  0  0  0  0
    2.8567   -2.9331   -0.9730 H   0  0  0  0  0  0  0  0  0  0  0  0
  1  2  1  0
  2  3  2  3
  3  4  1  0
  4  5  1  0
  5  6  1  0
  6  7  1  0
  7  8  1  0
  8  9  2  0
  9 10  1  0
 10 11  2  0
 10 12  1  0
 12 13  1  0
 13 14  1  0
 14 15  2  0
 15 16  1  0
 16 17  1  0
 17 18  2  0
 18 19  1  0
  2 20  1  0
 20 21  1  0
 21 22  2  3
 22 23  1  0
 23 24  1  0
 23 25  1  0
 23 26  1  0
 16  6  2  0
 13  7  2  0
 19 15  1  0
  1 27  1  0
  1 28  1  0
  1 29  1  0
  3 30  1  0
  4 31  1  0
  4 32  1  0
  8 33  1  0
  9 34  1  0
 14 35  1  0
 17 36  1  0
 18 37  1  0
 20 38  1  0
 20 39  1  0
 21 40  1  0
 22 41  1  0
 24 42  1  0
 24 43  1  0
 24 44  1  0
 25 45  1  0
 25 46  1  0
 25 47  1  0
 26 48  1  0
M  END
>  <Name>  (407) 
Notoptol

>  <PubChem ID>  (407) 
5320228

>  <CDB ID>  (407) 
CDB0407

>  <Smiles>  (407) 
CC(=CCOC1=C2C=CC(=O)OC2=CC3=C1C=CO3)CC=CC(C)(C)O

>  <Chemical class>  (407) 
5,7-Dioxygenated Coumarins

>  <Natural source>  (407) 
Notopterygium incisum

>  <Molecular Formula>  (407) 
C21H22O5

>  <InChI-Key>  (407) 
WIEGIEBFVOUTDV-UHFFFAOYSA-N

>  <Total Molweight>  (407) 
354.401

>  <cLogP>  (407) 
4.4725

>  <cLogS>  (407) 
-4.845

>  <H-Acceptors>  (407) 
5

>  <H-Donors>  (407) 
1

>  <Rotatable Bonds>  (407) 
6

>  <Polar Surface Area>  (407) 
68.9

$$$$
CDB0408
     RDKit          3D

 61 63  0  0  0  0  0  0  0  0999 V2000
   -2.6269   -3.6797   -2.5981 C   0  0  0  0  0  0  0  0  0  0  0  0
   -2.1942   -2.2247   -2.6303 C   0  0  0  0  0  0  0  0  0  0  0  0
   -1.7178   -1.7955   -1.3578 O   0  0  0  0  0  0  0  0  0  0  0  0
   -2.7331   -1.4044   -0.4393 C   0  0  2  0  0  0  0  0  0  0  0  0
   -3.1772    0.0232   -0.7542 C   0  0  0  0  0  0  0  0  0  0  0  0
   -2.2306   -1.3587    0.8938 O   0  0  0  0  0  0  0  0  0  0  0  0
   -1.9290   -2.5728    1.5737 C   0  0  0  0  0  0  0  0  0  0  0  0
   -3.1217   -3.5422    1.5724 C   0  0  0  0  0  0  0  0  0  0  0  0
   -0.6858   -3.2490    0.9789 C   0  0  0  0  0  0  0  0  0  0  0  0
   -1.6094   -2.2561    3.0353 C   0  0  0  0  0  0  0  0  0  0  0  0
   -1.4789   -1.0984    3.7106 C   0  0  0  0  0  0  0  0  0  0  0  0
   -1.6267    0.3201    3.2375 C   0  0  0  0  0  0  0  0  0  0  0  0
   -0.2792    0.9651    2.9691 C   0  0  0  0  0  0  0  0  0  0  0  0
    0.4161    1.5314    4.1756 C   0  0  0  0  0  0  0  0  0  0  0  0
    0.2034    1.0011    1.7104 C   0  0  0  0  0  0  0  0  0  0  0  0
    1.4877    1.5784    1.2039 C   0  0  0  0  0  0  0  0  0  0  0  0
    1.1710    2.3711    0.0490 O   0  0  0  0  0  0  0  0  0  0  0  0
    2.1369    2.2354   -0.9253 C   0  0  0  0  0  0  0  0  0  0  0  0
    2.1689    1.0956   -1.7596 C   0  0  0  0  0  0  0  0  0  0  0  0
    1.4188   -0.1064   -1.8810 C   0  0  0  0  0  0  0  0  0  0  0  0
    1.9841   -0.8181   -2.9129 C   0  0  0  0  0  0  0  0  0  0  0  0
    3.0316   -0.1369   -3.4458 O   0  0  0  0  0  0  0  0  0  0  0  0
    3.1424    1.0293   -2.7508 C   0  0  0  0  0  0  0  0  0  0  0  0
    4.0870    2.0215   -2.9904 C   0  0  0  0  0  0  0  0  0  0  0  0
    4.0011    3.1471   -2.1658 C   0  0  0  0  0  0  0  0  0  0  0  0
    3.0481    3.2840   -1.1523 C   0  0  0  0  0  0  0  0  0  0  0  0
    3.0415    4.5169   -0.3722 C   0  0  0  0  0  0  0  0  0  0  0  0
    3.9396    5.4742   -0.6211 C   0  0  0  0  0  0  0  0  0  0  0  0
    4.9628    5.3425   -1.6703 C   0  0  0  0  0  0  0  0  0  0  0  0
    5.7800    6.2342   -1.8658 O   0  0  0  0  0  0  0  0  0  0  0  0
    4.9472    4.1700   -2.4118 O   0  0  0  0  0  0  0  0  0  0  0  0
   -3.4876   -3.8254   -1.9394 H   0  0  0  0  0  0  0  0  0  0  0  0
   -2.9009   -4.0216   -3.6005 H   0  0  0  0  0  0  0  0  0  0  0  0
   -1.8201   -4.3147   -2.2190 H   0  0  0  0  0  0  0  0  0  0  0  0
   -3.0021   -1.5846   -2.9969 H   0  0  0  0  0  0  0  0  0  0  0  0
   -1.3587   -2.1234   -3.3308 H   0  0  0  0  0  0  0  0  0  0  0  0
   -3.6058   -2.0612   -0.4934 H   0  0  0  0  0  0  0  0  0  0  0  0
   -2.3161    0.7011   -0.7604 H   0  0  0  0  0  0  0  0  0  0  0  0
   -3.6548    0.0975   -1.7348 H   0  0  0  0  0  0  0  0  0  0  0  0
   -3.8773    0.3892    0.0042 H   0  0  0  0  0  0  0  0  0  0  0  0
   -4.0393   -3.0350    1.8927 H   0  0  0  0  0  0  0  0  0  0  0  0
   -3.3120   -3.9454    0.5725 H   0  0  0  0  0  0  0  0  0  0  0  0
   -2.9533   -4.4013    2.2323 H   0  0  0  0  0  0  0  0  0  0  0  0
    0.1285   -2.5267    0.8470 H   0  0  0  0  0  0  0  0  0  0  0  0
   -0.8923   -3.6802   -0.0046 H   0  0  0  0  0  0  0  0  0  0  0  0
   -0.3224   -4.0679    1.6108 H   0  0  0  0  0  0  0  0  0  0  0  0
   -1.4305   -3.1532    3.6323 H   0  0  0  0  0  0  0  0  0  0  0  0
   -1.2179   -1.1792    4.7660 H   0  0  0  0  0  0  0  0  0  0  0  0
   -2.1533    0.8920    4.0130 H   0  0  0  0  0  0  0  0  0  0  0  0
   -2.2799    0.4008    2.3653 H   0  0  0  0  0  0  0  0  0  0  0  0
   -0.1808    2.3413    4.6076 H   0  0  0  0  0  0  0  0  0  0  0  0
    0.5487    0.7569    4.9381 H   0  0  0  0  0  0  0  0  0  0  0  0
    1.4073    1.9332    3.9546 H   0  0  0  0  0  0  0  0  0  0  0  0
   -0.3957    0.5344    0.9288 H   0  0  0  0  0  0  0  0  0  0  0  0
    1.9690    2.2381    1.9302 H   0  0  0  0  0  0  0  0  0  0  0  0
    2.1768    0.7547    0.9785 H   0  0  0  0  0  0  0  0  0  0  0  0
    0.5707   -0.4154   -1.2856 H   0  0  0  0  0  0  0  0  0  0  0  0
    1.7677   -1.7748   -3.3671 H   0  0  0  0  0  0  0  0  0  0  0  0
    4.8274    1.9279   -3.7744 H   0  0  0  0  0  0  0  0  0  0  0  0
    2.2914    4.6440    0.4015 H   0  0  0  0  0  0  0  0  0  0  0  0
    3.9554    6.4010   -0.0607 H   0  0  0  0  0  0  0  0  0  0  0  0
  1  2  1  0
  2  3  1  0
  3  4  1  0
  4  5  1  0
  4  6  1  0
  6  7  1  0
  7  8  1  0
  7  9  1  0
  7 10  1  0
 10 11  2  3
 11 12  1  0
 12 13  1  0
 13 14  1  0
 13 15  2  3
 15 16  1  0
 16 17  1  0
 17 18  1  0
 18 19  2  0
 19 20  1  0
 20 21  2  0
 21 22  1  0
 22 23  1  0
 23 24  2  0
 24 25  1  0
 25 26  2  0
 26 27  1  0
 27 28  2  0
 28 29  1  0
 29 30  2  0
 29 31  1  0
 26 18  1  0
 23 19  1  0
 31 25  1  0
  1 32  1  0
  1 33  1  0
  1 34  1  0
  2 35  1  0
  2 36  1  0
  4 37  1  1
  5 38  1  0
  5 39  1  0
  5 40  1  0
  8 41  1  0
  8 42  1  0
  8 43  1  0
  9 44  1  0
  9 45  1  0
  9 46  1  0
 10 47  1  0
 11 48  1  0
 12 49  1  0
 12 50  1  0
 14 51  1  0
 14 52  1  0
 14 53  1  0
 15 54  1  0
 16 55  1  0
 16 56  1  0
 20 57  1  0
 21 58  1  0
 24 59  1  0
 27 60  1  0
 28 61  1  0
M  END
>  <Name>  (408) 
Notoptolide

>  <PubChem ID>  (408) 
5320229

>  <CDB ID>  (408) 
CDB0408

>  <Smiles>  (408) 
CCO[C@H](C)OC(C)(C)C=CCC(C)=CCOC1=C2C=COC2=CC2=C1C=CC(=O)O2

>  <Chemical class>  (408) 
5,7-Dioxygenated Coumarins

>  <Natural source>  (408) 
Notopterygium incisum

>  <Molecular Formula>  (408) 
C25H30O6

>  <InChI-Key>  (408) 
KVOVLZYNXYSDNA-SFHVURJKSA-N

>  <Total Molweight>  (408) 
426.507

>  <cLogP>  (408) 
5.4332

>  <cLogS>  (408) 
-5.515

>  <H-Acceptors>  (408) 
6

>  <H-Donors>  (408) 
0

>  <Rotatable Bonds>  (408) 
10

>  <Polar Surface Area>  (408) 
67.13

$$$$
CDB0409
     RDKit          3D

 46 49  0  0  0  0  0  0  0  0999 V2000
    4.2761    0.0422   -1.8238 C   0  0  0  0  0  0  0  0  0  0  0  0
    5.1504   -0.1303   -0.6115 C   0  0  0  0  0  0  0  0  0  0  0  0
    6.3410   -0.7460   -0.7131 C   0  0  0  0  0  0  0  0  0  0  0  0
    4.6407    0.4456    0.6486 C   0  0  0  0  0  0  0  0  0  0  0  0
    3.5809   -0.3018    1.4291 C   0  0  0  0  0  0  0  0  0  0  0  0
    4.9171   -0.1567    1.9275 O   0  0  0  0  0  0  0  0  0  0  0  0
    2.5555    0.4201    2.2534 C   0  0  0  0  0  0  0  0  0  0  0  0
    1.2281    0.7864    1.6013 C   0  0  0  0  0  0  0  0  0  0  0  0
    0.8906    0.4202    0.3471 C   0  0  0  0  0  0  0  0  0  0  0  0
   -0.3642    0.7294   -0.4165 C   0  0  0  0  0  0  0  0  0  0  0  0
   -1.0265   -0.5189   -0.6536 O   0  0  0  0  0  0  0  0  0  0  0  0
   -2.3730   -0.3132   -0.8726 C   0  0  0  0  0  0  0  0  0  0  0  0
   -3.2923   -0.6057    0.1540 C   0  0  0  0  0  0  0  0  0  0  0  0
   -2.8801   -1.1013    1.4632 C   0  0  0  0  0  0  0  0  0  0  0  0
   -3.7938   -1.3461    2.4067 C   0  0  0  0  0  0  0  0  0  0  0  0
   -5.2329   -1.1339    2.1852 C   0  0  0  0  0  0  0  0  0  0  0  0
   -6.0448   -1.3565    3.0753 O   0  0  0  0  0  0  0  0  0  0  0  0
   -5.6088   -0.6735    0.9314 O   0  0  0  0  0  0  0  0  0  0  0  0
   -4.6559   -0.4113   -0.0808 C   0  0  0  0  0  0  0  0  0  0  0  0
   -5.1650    0.0452   -1.2998 C   0  0  0  0  0  0  0  0  0  0  0  0
   -4.2204    0.2875   -2.2916 C   0  0  0  0  0  0  0  0  0  0  0  0
   -2.8489    0.1193   -2.1291 C   0  0  0  0  0  0  0  0  0  0  0  0
   -2.2722    0.4535   -3.3855 C   0  0  0  0  0  0  0  0  0  0  0  0
   -3.3130    0.8109   -4.2109 C   0  0  0  0  0  0  0  0  0  0  0  0
   -4.4977    0.7164   -3.5538 O   0  0  0  0  0  0  0  0  0  0  0  0
    0.3341    1.5860    2.5169 C   0  0  0  0  0  0  0  0  0  0  0  0
    3.3781   -0.5765   -1.7357 H   0  0  0  0  0  0  0  0  0  0  0  0
    4.7896   -0.2457   -2.7474 H   0  0  0  0  0  0  0  0  0  0  0  0
    3.9703    1.0884   -1.9296 H   0  0  0  0  0  0  0  0  0  0  0  0
    6.9814   -0.8624    0.1571 H   0  0  0  0  0  0  0  0  0  0  0  0
    6.7025   -1.1516   -1.6521 H   0  0  0  0  0  0  0  0  0  0  0  0
    4.5881    1.5302    0.6367 H   0  0  0  0  0  0  0  0  0  0  0  0
    3.2773   -1.2962    1.1306 H   0  0  0  0  0  0  0  0  0  0  0  0
    3.0016    1.3465    2.6402 H   0  0  0  0  0  0  0  0  0  0  0  0
    2.3394   -0.2068    3.1282 H   0  0  0  0  0  0  0  0  0  0  0  0
    1.5854   -0.1828   -0.2316 H   0  0  0  0  0  0  0  0  0  0  0  0
   -0.0843    1.1738   -1.3788 H   0  0  0  0  0  0  0  0  0  0  0  0
   -1.0094    1.4420    0.1068 H   0  0  0  0  0  0  0  0  0  0  0  0
   -1.8252   -1.2739    1.6516 H   0  0  0  0  0  0  0  0  0  0  0  0
   -3.5171   -1.7180    3.3858 H   0  0  0  0  0  0  0  0  0  0  0  0
   -6.2240    0.1894   -1.4719 H   0  0  0  0  0  0  0  0  0  0  0  0
   -1.2259    0.4303   -3.6543 H   0  0  0  0  0  0  0  0  0  0  0  0
   -3.3759    1.1360   -5.2403 H   0  0  0  0  0  0  0  0  0  0  0  0
   -0.6699    1.7487    2.1211 H   0  0  0  0  0  0  0  0  0  0  0  0
    0.7794    2.5669    2.7135 H   0  0  0  0  0  0  0  0  0  0  0  0
    0.2137    1.0645    3.4728 H   0  0  0  0  0  0  0  0  0  0  0  0
  1  2  1  0
  2  3  2  0
  2  4  1  0
  4  5  1  0
  5  6  1  0
  5  7  1  0
  7  8  1  0
  8  9  2  3
  9 10  1  0
 10 11  1  0
 11 12  1  0
 12 13  1  0
 13 14  1  0
 14 15  2  0
 15 16  1  0
 16 17  2  0
 16 18  1  0
 18 19  1  0
 19 20  1  0
 20 21  2  0
 21 22  1  0
 22 23  1  0
 23 24  2  0
 24 25  1  0
  8 26  1  0
  6  4  1  0
 22 12  2  0
 19 13  2  0
 25 21  1  0
  1 27  1  0
  1 28  1  0
  1 29  1  0
  3 30  1  0
  3 31  1  0
  4 32  1  0
  5 33  1  0
  7 34  1  0
  7 35  1  0
  9 36  1  0
 10 37  1  0
 10 38  1  0
 14 39  1  0
 15 40  1  0
 20 41  1  0
 23 42  1  0
 24 43  1  0
 26 44  1  0
 26 45  1  0
 26 46  1  0
M  END
>  <Name>  (409) 
Anhydronotoptoloxide

>  <PubChem ID>  (409) 
5319014

>  <CDB ID>  (409) 
CDB0409

>  <Smiles>  (409) 
CC(=C)C1C(O1)CC(=CCOC2=C3C=CC(=O)OC3=CC4=C2C=CO4)C

>  <Chemical class>  (409) 
5,7-Dioxygenated Coumarins

>  <Natural source>  (409) 
Notopterygium incisum

>  <Molecular Formula>  (409) 
C21H20O5

>  <InChI-Key>  (409) 
RHKSSBBUZBOFLR-UHFFFAOYSA-N

>  <Total Molweight>  (409) 
352.385

>  <cLogP>  (409) 
4.4122

>  <cLogS>  (409) 
-5.109

>  <H-Acceptors>  (409) 
5

>  <H-Donors>  (409) 
0

>  <Rotatable Bonds>  (409) 
6

>  <Polar Surface Area>  (409) 
61.2

$$$$
CDB0410
     RDKit          3D

 47 50  0  0  0  0  0  0  0  0999 V2000
   -1.6512    1.0796    2.4636 C   0  0  0  0  0  0  0  0  0  0  0  0
   -1.9783    0.3234    1.2015 C   0  0  0  0  0  0  0  0  0  0  0  0
   -1.1079    0.0819    0.1923 C   0  0  0  0  0  0  0  0  0  0  0  0
   -1.4980   -0.7475   -1.0166 C   0  0  0  0  0  0  0  0  0  0  0  0
   -2.8299   -1.4876   -0.8846 C   0  0  0  0  0  0  0  0  0  0  0  0
   -3.9191   -0.6316   -0.2180 C   0  0  0  0  0  0  0  0  0  0  0  0
   -3.4095   -0.1849    1.1706 C   0  0  0  0  0  0  0  0  0  0  0  0
   -5.1958   -1.4737   -0.0454 C   0  0  0  0  0  0  0  0  0  0  0  0
   -4.2680    0.5934   -1.0870 C   0  0  0  0  0  0  0  0  0  0  0  0
    0.3073    0.6165    0.1172 C   0  0  0  0  0  0  0  0  0  0  0  0
    1.2106   -0.4852    0.2853 O   0  0  0  0  0  0  0  0  0  0  0  0
    2.5155   -0.0434    0.2199 C   0  0  0  0  0  0  0  0  0  0  0  0
    3.2469   -0.1811   -0.9763 C   0  0  0  0  0  0  0  0  0  0  0  0
    2.6817   -0.7714   -2.1852 C   0  0  0  0  0  0  0  0  0  0  0  0
    3.4165   -0.8609   -3.2974 C   0  0  0  0  0  0  0  0  0  0  0  0
    4.8054   -0.3802   -3.3662 C   0  0  0  0  0  0  0  0  0  0  0  0
    5.4475   -0.4623   -4.4063 O   0  0  0  0  0  0  0  0  0  0  0  0
    5.3347    0.1606   -2.2035 O   0  0  0  0  0  0  0  0  0  0  0  0
    4.5735    0.2588   -1.0149 C   0  0  0  0  0  0  0  0  0  0  0  0
    5.2298    0.8126    0.0880 C   0  0  0  0  0  0  0  0  0  0  0  0
    4.4792    0.8871    1.2561 C   0  0  0  0  0  0  0  0  0  0  0  0
    3.1559    0.4736    1.3669 C   0  0  0  0  0  0  0  0  0  0  0  0
    2.7961    0.7042    2.7233 C   0  0  0  0  0  0  0  0  0  0  0  0
    3.9018    1.2487    3.3340 C   0  0  0  0  0  0  0  0  0  0  0  0
    4.9261    1.3666    2.4497 O   0  0  0  0  0  0  0  0  0  0  0  0
   -0.5821    1.2344    2.6182 H   0  0  0  0  0  0  0  0  0  0  0  0
   -2.1423    2.0579    2.4532 H   0  0  0  0  0  0  0  0  0  0  0  0
   -2.0102    0.5242    3.3373 H   0  0  0  0  0  0  0  0  0  0  0  0
   -0.7210   -1.4937   -1.2218 H   0  0  0  0  0  0  0  0  0  0  0  0
   -1.5352   -0.0874   -1.8923 H   0  0  0  0  0  0  0  0  0  0  0  0
   -3.1543   -1.8269   -1.8764 H   0  0  0  0  0  0  0  0  0  0  0  0
   -2.6661   -2.3963   -0.2888 H   0  0  0  0  0  0  0  0  0  0  0  0
   -4.0783    0.5953    1.5581 H   0  0  0  0  0  0  0  0  0  0  0  0
   -3.4708   -1.0247    1.8764 H   0  0  0  0  0  0  0  0  0  0  0  0
   -5.5861   -1.8028   -1.0150 H   0  0  0  0  0  0  0  0  0  0  0  0
   -5.0038   -2.3696    0.5558 H   0  0  0  0  0  0  0  0  0  0  0  0
   -5.9832   -0.8997    0.4560 H   0  0  0  0  0  0  0  0  0  0  0  0
   -4.5866    0.2841   -2.0890 H   0  0  0  0  0  0  0  0  0  0  0  0
   -3.4229    1.2785   -1.2050 H   0  0  0  0  0  0  0  0  0  0  0  0
   -5.0888    1.1676   -0.6418 H   0  0  0  0  0  0  0  0  0  0  0  0
    0.4971    1.3928    0.8639 H   0  0  0  0  0  0  0  0  0  0  0  0
    0.4578    1.0785   -0.8681 H   0  0  0  0  0  0  0  0  0  0  0  0
    1.6642   -1.1459   -2.1603 H   0  0  0  0  0  0  0  0  0  0  0  0
    3.0240   -1.2988   -4.2071 H   0  0  0  0  0  0  0  0  0  0  0  0
    6.2587    1.1463    0.0475 H   0  0  0  0  0  0  0  0  0  0  0  0
    1.8462    0.4925    3.1929 H   0  0  0  0  0  0  0  0  0  0  0  0
    4.1130    1.5854    4.3395 H   0  0  0  0  0  0  0  0  0  0  0  0
  1  2  1  0
  2  3  2  0
  3  4  1  0
  4  5  1  0
  5  6  1  0
  6  7  1  0
  6  8  1  0
  6  9  1  0
  3 10  1  0
 10 11  1  0
 11 12  1  0
 12 13  1  0
 13 14  1  0
 14 15  2  0
 15 16  1  0
 16 17  2  0
 16 18  1  0
 18 19  1  0
 19 20  1  0
 20 21  2  0
 21 22  1  0
 22 23  1  0
 23 24  2  0
 24 25  1  0
  7  2  1  0
 22 12  2  0
 19 13  2  0
 25 21  1  0
  1 26  1  0
  1 27  1  0
  1 28  1  0
  4 29  1  0
  4 30  1  0
  5 31  1  0
  5 32  1  0
  7 33  1  0
  7 34  1  0
  8 35  1  0
  8 36  1  0
  8 37  1  0
  9 38  1  0
  9 39  1  0
  9 40  1  0
 10 41  1  0
 10 42  1  0
 14 43  1  0
 15 44  1  0
 20 45  1  0
 23 46  1  0
 24 47  1  0
M  END
>  <Name>  (410) 
Archangelin (Iselin)

>  <PubChem ID>  (410) 
177156

>  <CDB ID>  (410) 
CDB0410

>  <Smiles>  (410) 
CC1=C(CCC(C1)(C)C)COC2=C3C=CC(=O)OC3=CC4=C2C=CO4

>  <Chemical class>  (410) 
5,7-Dioxygenated Coumarins

>  <Natural source>  (410) 
Angelica archangelica

>  <Molecular Formula>  (410) 
C21H22O4

>  <InChI-Key>  (410) 
NETRCGJRLNZPCW-UHFFFAOYSA-N

>  <Total Molweight>  (410) 
338.402

>  <cLogP>  (410) 
4.5659

>  <cLogS>  (410) 
-5.37

>  <H-Acceptors>  (410) 
4

>  <H-Donors>  (410) 
0

>  <Rotatable Bonds>  (410) 
3

>  <Polar Surface Area>  (410) 
48.67

$$$$
CDB0411
     RDKit          3D

 35 37  0  0  0  0  0  0  0  0999 V2000
   -3.0550    0.4827    1.3138 C   0  0  0  0  0  0  0  0  0  0  0  0
   -2.7777   -0.2595   -0.0023 C   0  0  0  0  0  0  0  0  0  0  0  0
   -2.3473    0.6791   -1.1371 C   0  0  0  0  0  0  0  0  0  0  0  0
   -1.0062    1.3283   -0.8314 C   0  0  0  0  0  0  0  0  0  0  0  0
   -0.0250    0.3072   -0.3294 C   0  0  0  0  0  0  0  0  0  0  0  0
   -0.4797   -0.9241    0.1604 C   0  0  0  0  0  0  0  0  0  0  0  0
   -1.7975   -1.2842    0.2371 O   0  0  0  0  0  0  0  0  0  0  0  0
    0.4256   -1.8936    0.5885 C   0  0  0  0  0  0  0  0  0  0  0  0
    1.7907   -1.6293    0.5282 C   0  0  0  0  0  0  0  0  0  0  0  0
    2.2833   -0.4120    0.0644 C   0  0  0  0  0  0  0  0  0  0  0  0
    1.3599    0.5698   -0.3279 C   0  0  0  0  0  0  0  0  0  0  0  0
    1.8069    1.7851   -0.7925 O   0  0  0  0  0  0  0  0  0  0  0  0
    1.9447    2.7083    0.2910 C   0  0  0  0  0  0  0  0  0  0  0  0
    3.7294   -0.2373   -0.0065 C   0  0  0  0  0  0  0  0  0  0  0  0
    4.5425   -1.2170    0.3992 C   0  0  0  0  0  0  0  0  0  0  0  0
    4.0357   -2.4945    0.9264 C   0  0  0  0  0  0  0  0  0  0  0  0
    4.8089   -3.3644    1.3098 O   0  0  0  0  0  0  0  0  0  0  0  0
    2.6581   -2.6537    0.9603 O   0  0  0  0  0  0  0  0  0  0  0  0
   -4.0582   -0.9939   -0.4263 C   0  0  0  0  0  0  0  0  0  0  0  0
   -3.4059   -0.2147    2.0835 H   0  0  0  0  0  0  0  0  0  0  0  0
   -3.8136    1.2611    1.1816 H   0  0  0  0  0  0  0  0  0  0  0  0
   -2.1517    0.9474    1.7219 H   0  0  0  0  0  0  0  0  0  0  0  0
   -3.1027    1.4514   -1.3243 H   0  0  0  0  0  0  0  0  0  0  0  0
   -2.2426    0.0992   -2.0649 H   0  0  0  0  0  0  0  0  0  0  0  0
   -0.6318    1.8030   -1.7459 H   0  0  0  0  0  0  0  0  0  0  0  0
   -1.1301    2.1125   -0.0764 H   0  0  0  0  0  0  0  0  0  0  0  0
    0.0679   -2.8511    0.9561 H   0  0  0  0  0  0  0  0  0  0  0  0
    2.2630    3.6677   -0.1277 H   0  0  0  0  0  0  0  0  0  0  0  0
    0.9934    2.8647    0.8102 H   0  0  0  0  0  0  0  0  0  0  0  0
    2.7103    2.3785    1.0010 H   0  0  0  0  0  0  0  0  0  0  0  0
    4.1282    0.6883   -0.4068 H   0  0  0  0  0  0  0  0  0  0  0  0
    5.6203   -1.1201    0.3540 H   0  0  0  0  0  0  0  0  0  0  0  0
   -3.8863   -1.5855   -1.3331 H   0  0  0  0  0  0  0  0  0  0  0  0
   -4.8803   -0.2964   -0.6176 H   0  0  0  0  0  0  0  0  0  0  0  0
   -4.3770   -1.7032    0.3463 H   0  0  0  0  0  0  0  0  0  0  0  0
  1  2  1  0
  2  3  1  0
  3  4  1  0
  4  5  1  0
  5  6  2  0
  6  7  1  0
  6  8  1  0
  8  9  2  0
  9 10  1  0
 10 11  2  0
 11 12  1  0
 12 13  1  0
 10 14  1  0
 14 15  2  0
 15 16  1  0
 16 17  2  0
 16 18  1  0
  2 19  1  0
  7  2  1  0
 11  5  1  0
 18  9  1  0
  1 20  1  0
  1 21  1  0
  1 22  1  0
  3 23  1  0
  3 24  1  0
  4 25  1  0
  4 26  1  0
  8 27  1  0
 13 28  1  0
 13 29  1  0
 13 30  1  0
 14 31  1  0
 15 32  1  0
 19 33  1  0
 19 34  1  0
 19 35  1  0
M  END
>  <Name>  (411) 
Kanzonol Q

>  <PubChem ID>  (411) 
11253965

>  <CDB ID>  (411) 
CDB0411

>  <Smiles>  (411) 
CC1(CCC2=C(O1)C=C3C(=C2OC)C=CC(=O)O3)C

>  <Chemical class>  (411) 
5,7-Dioxygenated Coumarins

>  <Natural source>  (411) 
Glycyrrhiza uralensis

>  <Molecular Formula>  (411) 
C15H16O4

>  <InChI-Key>  (411) 
HJUDWPJIBKIYQS-UHFFFAOYSA-N

>  <Total Molweight>  (411) 
260.288

>  <cLogP>  (411) 
2.6179

>  <cLogS>  (411) 
-3.512

>  <H-Acceptors>  (411) 
4

>  <H-Donors>  (411) 
0

>  <Rotatable Bonds>  (411) 
1

>  <Polar Surface Area>  (411) 
44.76

$$$$
CDB0412
     RDKit          3D

 31 33  0  0  0  0  0  0  0  0999 V2000
   -2.9574    0.4627   -0.6388 C   0  0  0  0  0  0  0  0  0  0  0  0
   -2.5044   -0.1330    0.7050 C   0  0  0  0  0  0  0  0  0  0  0  0
   -2.1607   -1.6190    0.6019 C   0  0  0  0  0  0  0  0  0  0  0  0
   -0.8920   -1.8119   -0.1764 C   0  0  0  0  0  0  0  0  0  0  0  0
   -0.6650   -2.8175   -0.8453 O   0  0  0  0  0  0  0  0  0  0  0  0
    0.1362   -0.7652   -0.0508 C   0  0  0  0  0  0  0  0  0  0  0  0
   -0.1819    0.3872    0.6704 C   0  0  0  0  0  0  0  0  0  0  0  0
   -1.4047    0.6307    1.2316 O   0  0  0  0  0  0  0  0  0  0  0  0
    0.7844    1.3714    0.8647 C   0  0  0  0  0  0  0  0  0  0  0  0
    2.0511    1.2015    0.3079 C   0  0  0  0  0  0  0  0  0  0  0  0
    2.3865    0.0691   -0.4348 C   0  0  0  0  0  0  0  0  0  0  0  0
    1.4153   -0.9240   -0.6115 C   0  0  0  0  0  0  0  0  0  0  0  0
    1.7550   -2.0426   -1.3333 O   0  0  0  0  0  0  0  0  0  0  0  0
    3.7341   -0.0227   -0.9826 C   0  0  0  0  0  0  0  0  0  0  0  0
    4.6121    0.9618   -0.7693 C   0  0  0  0  0  0  0  0  0  0  0  0
    4.2749    2.1633    0.0114 C   0  0  0  0  0  0  0  0  0  0  0  0
    5.1015    3.0499    0.1894 O   0  0  0  0  0  0  0  0  0  0  0  0
    2.9871    2.2334    0.5260 O   0  0  0  0  0  0  0  0  0  0  0  0
   -3.6478    0.0384    1.7169 C   0  0  0  0  0  0  0  0  0  0  0  0
   -3.1859    1.5293   -0.5308 H   0  0  0  0  0  0  0  0  0  0  0  0
   -3.8492   -0.0457   -1.0205 H   0  0  0  0  0  0  0  0  0  0  0  0
   -2.1769    0.3945   -1.4037 H   0  0  0  0  0  0  0  0  0  0  0  0
   -2.9697   -2.1707    0.1103 H   0  0  0  0  0  0  0  0  0  0  0  0
   -1.9914   -2.0574    1.5930 H   0  0  0  0  0  0  0  0  0  0  0  0
    0.5520    2.2669    1.4346 H   0  0  0  0  0  0  0  0  0  0  0  0
    0.9744   -2.6419   -1.3687 H   0  0  0  0  0  0  0  0  0  0  0  0
    4.0040   -0.9006   -1.5611 H   0  0  0  0  0  0  0  0  0  0  0  0
    5.6202    0.9215   -1.1634 H   0  0  0  0  0  0  0  0  0  0  0  0
   -3.9062    1.0967    1.8394 H   0  0  0  0  0  0  0  0  0  0  0  0
   -4.5471   -0.5048    1.4081 H   0  0  0  0  0  0  0  0  0  0  0  0
   -3.3485   -0.3210    2.7084 H   0  0  0  0  0  0  0  0  0  0  0  0
  1  2  1  0
  2  3  1  0
  3  4  1  0
  4  5  2  0
  4  6  1  0
  6  7  1  0
  7  8  1  0
  7  9  2  0
  9 10  1  0
 10 11  2  0
 11 12  1  0
 12 13  1  0
 11 14  1  0
 14 15  2  0
 15 16  1  0
 16 17  2  0
 16 18  1  0
  2 19  1  0
  8  2  1  0
 12  6  2  0
 18 10  1  0
  1 20  1  0
  1 21  1  0
  1 22  1  0
  3 23  1  0
  3 24  1  0
  9 25  1  0
 13 26  1  0
 14 27  1  0
 15 28  1  0
 19 29  1  0
 19 30  1  0
 19 31  1  0
M  END
>  <Name>  (412) 
Clausenin

>  <PubChem ID>  (412) 
5315948

>  <CDB ID>  (412) 
CDB0412

>  <Smiles>  (412) 
CC1(CC(=O)C2=C(O1)C=C3C(=C2O)C=CC(=O)O3)C

>  <Chemical class>  (412) 
5,7-Dioxygenated Coumarins

>  <Natural source>  (412) 
Clausena heptaphylla

>  <Molecular Formula>  (412) 
C14H12O5

>  <InChI-Key>  (412) 
XFSINVCSJTYZGH-UHFFFAOYSA-N

>  <Total Molweight>  (412) 
260.244

>  <cLogP>  (412) 
1.7914

>  <cLogS>  (412) 
-3.379

>  <H-Acceptors>  (412) 
5

>  <H-Donors>  (412) 
1

>  <Rotatable Bonds>  (412) 
0

>  <Polar Surface Area>  (412) 
72.83

$$$$
CDB0413
     RDKit          3D

 43 47  0  0  0  0  0  0  0  0999 V2000
   -0.9110   -2.1788   -1.1088 C   0  0  0  0  0  0  0  0  0  0  0  0
   -1.5588   -1.6836    0.1834 C   0  0  0  0  0  0  0  0  0  0  0  0
   -2.7421   -0.6667    0.0344 C   0  0  0  0  0  0  0  0  0  0  0  0
   -3.0996    0.0550   -1.2673 C   0  0  0  0  0  0  0  0  0  0  0  0
   -3.0043    1.5382   -0.9066 C   0  0  0  0  0  0  0  0  0  0  0  0
   -1.7544    1.5963   -0.0187 C   0  0  0  0  0  0  0  0  0  0  0  0
   -1.9472    0.3613    0.8650 C   0  0  0  0  0  0  0  0  0  0  0  0
   -0.7666   -0.6098    1.0133 C   0  0  0  0  0  0  0  0  0  0  0  0
    0.5865   -0.0274    0.4745 C   0  0  0  0  0  0  0  0  0  0  0  0
    0.5586    1.0381   -0.4381 C   0  0  0  0  0  0  0  0  0  0  0  0
   -0.6170    1.5572   -0.9080 O   0  0  0  0  0  0  0  0  0  0  0  0
    1.7238    1.5679   -0.9847 C   0  0  0  0  0  0  0  0  0  0  0  0
    2.9510    1.0415   -0.5984 C   0  0  0  0  0  0  0  0  0  0  0  0
    3.0490   -0.0116    0.3100 C   0  0  0  0  0  0  0  0  0  0  0  0
    1.8556   -0.5231    0.8454 C   0  0  0  0  0  0  0  0  0  0  0  0
    1.8500   -1.5484    1.7596 O   0  0  0  0  0  0  0  0  0  0  0  0
    4.3807   -0.5320    0.6065 C   0  0  0  0  0  0  0  0  0  0  0  0
    5.4589    0.0309    0.0515 C   0  0  0  0  0  0  0  0  0  0  0  0
    5.3703    1.1750   -0.8694 C   0  0  0  0  0  0  0  0  0  0  0  0
    6.3825    1.6827   -1.3370 O   0  0  0  0  0  0  0  0  0  0  0  0
    4.0969    1.6272   -1.1755 O   0  0  0  0  0  0  0  0  0  0  0  0
   -1.6965    2.8798    0.8012 C   0  0  0  0  0  0  0  0  0  0  0  0
   -1.9603   -2.8851    1.0531 C   0  0  0  0  0  0  0  0  0  0  0  0
   -0.0381   -2.8046   -0.8921 H   0  0  0  0  0  0  0  0  0  0  0  0
   -1.6173   -2.7813   -1.6905 H   0  0  0  0  0  0  0  0  0  0  0  0
   -0.5717   -1.3608   -1.7501 H   0  0  0  0  0  0  0  0  0  0  0  0
   -3.6605   -0.9831    0.5489 H   0  0  0  0  0  0  0  0  0  0  0  0
   -4.1060   -0.2060   -1.6097 H   0  0  0  0  0  0  0  0  0  0  0  0
   -2.4037   -0.1772   -2.0779 H   0  0  0  0  0  0  0  0  0  0  0  0
   -2.9252    2.1587   -1.8048 H   0  0  0  0  0  0  0  0  0  0  0  0
   -3.8994    1.8357   -0.3464 H   0  0  0  0  0  0  0  0  0  0  0  0
   -2.4439    0.5847    1.8192 H   0  0  0  0  0  0  0  0  0  0  0  0
   -0.6619   -0.9040    2.0691 H   0  0  0  0  0  0  0  0  0  0  0  0
    1.6716    2.3779   -1.7059 H   0  0  0  0  0  0  0  0  0  0  0  0
    2.6912   -1.5488    2.2417 H   0  0  0  0  0  0  0  0  0  0  0  0
    4.4989   -1.3934    1.2516 H   0  0  0  0  0  0  0  0  0  0  0  0
    6.4594   -0.3378    0.2439 H   0  0  0  0  0  0  0  0  0  0  0  0
   -2.5869    3.0046    1.4262 H   0  0  0  0  0  0  0  0  0  0  0  0
   -1.6018    3.7553    0.1494 H   0  0  0  0  0  0  0  0  0  0  0  0
   -0.8232    2.8798    1.4631 H   0  0  0  0  0  0  0  0  0  0  0  0
   -2.6679   -3.5309    0.5219 H   0  0  0  0  0  0  0  0  0  0  0  0
   -1.0824   -3.4856    1.3157 H   0  0  0  0  0  0  0  0  0  0  0  0
   -2.4372   -2.5679    1.9873 H   0  0  0  0  0  0  0  0  0  0  0  0
  1  2  1  0
  2  3  1  0
  3  4  1  0
  4  5  1  0
  5  6  1  0
  6  7  1  0
  7  8  1  0
  8  9  1  0
  9 10  2  0
 10 11  1  0
 10 12  1  0
 12 13  2  0
 13 14  1  0
 14 15  2  0
 15 16  1  0
 14 17  1  0
 17 18  2  0
 18 19  1  0
 19 20  2  0
 19 21  1  0
  6 22  1  0
  2 23  1  0
  8  2  1  0
  7  3  1  0
 11  6  1  0
 15  9  1  0
 21 13  1  0
  1 24  1  0
  1 25  1  0
  1 26  1  0
  3 27  1  0
  4 28  1  0
  4 29  1  0
  5 30  1  0
  5 31  1  0
  7 32  1  0
  8 33  1  0
 12 34  1  0
 16 35  1  0
 17 36  1  0
 18 37  1  0
 22 38  1  0
 22 39  1  0
 22 40  1  0
 23 41  1  0
 23 42  1  0
 23 43  1  0
M  END
>  <Name>  (413) 
Eriobrucinol

>  <PubChem ID>  (413) 
102059837

>  <CDB ID>  (413) 
CDB0413

>  <Smiles>  (413) 
CC1(C2CCC3(C2C1C4=C(O3)C=C5C(=C4O)C=CC(=O)O5)C)C

>  <Chemical class>  (413) 
5,7-Dioxygenated Coumarins

>  <Natural source>  (413) 
Eriostemon brucei

>  <Molecular Formula>  (413) 
C19H20O4

>  <InChI-Key>  (413) 
FIAJUSACIWBXJG-UHFFFAOYSA-N

>  <Total Molweight>  (413) 
312.364

>  <cLogP>  (413) 
3.5742

>  <cLogS>  (413) 
-4.395

>  <H-Acceptors>  (413) 
4

>  <H-Donors>  (413) 
1

>  <Rotatable Bonds>  (413) 
0

>  <Polar Surface Area>  (413) 
55.76

$$$$
CDB0414
     RDKit          3D

 44 48  0  0  0  0  0  0  0  0999 V2000
   -1.9629    2.9295   -0.9493 C   0  0  0  0  0  0  0  0  0  0  0  0
   -1.5913    1.6415   -0.1900 C   0  0  0  0  0  0  0  0  0  0  0  0
   -2.6907    0.5345   -0.4144 C   0  0  0  0  0  0  0  0  0  0  0  0
   -3.2655   -0.5003    0.5645 C   0  0  0  0  0  0  0  0  0  0  0  0
   -2.9500   -1.8567   -0.0752 C   0  0  0  0  0  0  0  0  0  0  0  0
   -1.5470   -1.6411   -0.6613 C   0  0  0  0  0  0  0  0  0  0  0  0
   -1.6875   -0.2518   -1.2855 C   0  0  0  0  0  0  0  0  0  0  0  0
   -0.5760    0.7730   -1.0157 C   0  0  0  0  0  0  0  0  0  0  0  0
    0.6896    0.1498   -0.3279 C   0  0  0  0  0  0  0  0  0  0  0  0
    0.5757   -1.0786    0.3403 C   0  0  0  0  0  0  0  0  0  0  0  0
   -0.6243   -1.7292    0.4494 O   0  0  0  0  0  0  0  0  0  0  0  0
    1.6495   -1.6524    1.0149 C   0  0  0  0  0  0  0  0  0  0  0  0
    2.8840   -1.0140    0.9832 C   0  0  0  0  0  0  0  0  0  0  0  0
    3.0715    0.1941    0.3143 C   0  0  0  0  0  0  0  0  0  0  0  0
    1.9569    0.7708   -0.3147 C   0  0  0  0  0  0  0  0  0  0  0  0
    2.0336    1.9886   -0.9451 O   0  0  0  0  0  0  0  0  0  0  0  0
    4.4161    0.7615    0.2933 C   0  0  0  0  0  0  0  0  0  0  0  0
    5.4104    0.1493    0.9443 C   0  0  0  0  0  0  0  0  0  0  0  0
    5.2138   -1.1002    1.6968 C   0  0  0  0  0  0  0  0  0  0  0  0
    6.1435   -1.6202    2.3018 O   0  0  0  0  0  0  0  0  0  0  0  0
    3.9404   -1.6469    1.6702 O   0  0  0  0  0  0  0  0  0  0  0  0
   -1.1893   -2.7014   -1.6955 C   0  0  0  0  0  0  0  0  0  0  0  0
   -2.6906   -0.3996    1.8567 O   0  0  0  0  0  0  0  0  0  0  0  0
   -1.1886    2.0055    1.2366 C   0  0  0  0  0  0  0  0  0  0  0  0
   -2.8046    3.4363   -0.4645 H   0  0  0  0  0  0  0  0  0  0  0  0
   -1.1161    3.6242   -0.9753 H   0  0  0  0  0  0  0  0  0  0  0  0
   -2.2516    2.7215   -1.9859 H   0  0  0  0  0  0  0  0  0  0  0  0
   -3.5306    0.9079   -1.0210 H   0  0  0  0  0  0  0  0  0  0  0  0
   -4.3462   -0.3716    0.6814 H   0  0  0  0  0  0  0  0  0  0  0  0
   -3.6733   -2.0616   -0.8739 H   0  0  0  0  0  0  0  0  0  0  0  0
   -2.9739   -2.6683    0.6593 H   0  0  0  0  0  0  0  0  0  0  0  0
   -2.0002   -0.2813   -2.3386 H   0  0  0  0  0  0  0  0  0  0  0  0
   -0.2876    1.2642   -1.9579 H   0  0  0  0  0  0  0  0  0  0  0  0
    1.5256   -2.5884    1.5513 H   0  0  0  0  0  0  0  0  0  0  0  0
    2.7090    2.5264   -0.5016 H   0  0  0  0  0  0  0  0  0  0  0  0
    4.6169    1.6614   -0.2749 H   0  0  0  0  0  0  0  0  0  0  0  0
    6.4215    0.5387    0.9405 H   0  0  0  0  0  0  0  0  0  0  0  0
   -0.2070   -2.5000   -2.1373 H   0  0  0  0  0  0  0  0  0  0  0  0
   -1.9187   -2.7366   -2.5114 H   0  0  0  0  0  0  0  0  0  0  0  0
   -1.1334   -3.6932   -1.2337 H   0  0  0  0  0  0  0  0  0  0  0  0
   -1.8094   -0.8199    1.8262 H   0  0  0  0  0  0  0  0  0  0  0  0
   -0.3975    2.7641    1.2355 H   0  0  0  0  0  0  0  0  0  0  0  0
   -2.0414    2.4161    1.7879 H   0  0  0  0  0  0  0  0  0  0  0  0
   -0.8032    1.1544    1.8018 H   0  0  0  0  0  0  0  0  0  0  0  0
  1  2  1  0
  2  3  1  0
  3  4  1  0
  4  5  1  0
  5  6  1  0
  6  7  1  0
  7  8  1  0
  8  9  1  0
  9 10  2  0
 10 11  1  0
 10 12  1  0
 12 13  2  0
 13 14  1  0
 14 15  2  0
 15 16  1  0
 14 17  1  0
 17 18  2  0
 18 19  1  0
 19 20  2  0
 19 21  1  0
  6 22  1  0
  4 23  1  0
  2 24  1  0
  8  2  1  0
  7  3  1  0
 11  6  1  0
 15  9  1  0
 21 13  1  0
  1 25  1  0
  1 26  1  0
  1 27  1  0
  3 28  1  0
  4 29  1  0
  5 30  1  0
  5 31  1  0
  7 32  1  0
  8 33  1  0
 12 34  1  0
 16 35  1  0
 17 36  1  0
 18 37  1  0
 22 38  1  0
 22 39  1  0
 22 40  1  0
 23 41  1  0
 24 42  1  0
 24 43  1  0
 24 44  1  0
M  END
>  <Name>  (414) 
Hydroxyeriobrucinol

>  <PubChem ID>  (414) 
101635471

>  <CDB ID>  (414) 
CDB0414

>  <Smiles>  (414) 
CC1(C2C(CC3(C2C1C4=C(O3)C=C5C(=C4O)C=CC(=O)O5)C)O)C

>  <Chemical class>  (414) 
5,7-Dioxygenated Coumarins

>  <Natural source>  (414) 
Eriostemon brucei

>  <Molecular Formula>  (414) 
C19H20O5

>  <InChI-Key>  (414) 
ZSTCJSXZGHSBEH-UHFFFAOYSA-N

>  <Total Molweight>  (414) 
328.363

>  <cLogP>  (414) 
2.7221

>  <cLogS>  (414) 
-3.996

>  <H-Acceptors>  (414) 
5

>  <H-Donors>  (414) 
2

>  <Rotatable Bonds>  (414) 
0

>  <Polar Surface Area>  (414) 
75.99

$$$$
CDB0415
     RDKit          3D

 26 26  0  0  0  0  0  0  0  0999 V2000
   -2.9637   -1.3937    0.8654 C   0  0  0  0  0  0  0  0  0  0  0  0
   -1.8600   -1.8084   -0.0703 C   0  0  0  0  0  0  0  0  0  0  0  0
   -1.8952   -2.9000   -0.6456 O   0  0  0  0  0  0  0  0  0  0  0  0
   -0.6687   -0.9329   -0.2823 C   0  0  0  0  0  0  0  0  0  0  0  0
    0.5417   -1.5490   -0.6524 C   0  0  0  0  0  0  0  0  0  0  0  0
    1.7115   -0.8103   -0.8256 C   0  0  0  0  0  0  0  0  0  0  0  0
    1.6862    0.5679   -0.6503 C   0  0  0  0  0  0  0  0  0  0  0  0
    0.4815    1.1968   -0.3127 C   0  0  0  0  0  0  0  0  0  0  0  0
   -0.7031    0.4655   -0.1347 C   0  0  0  0  0  0  0  0  0  0  0  0
   -1.9107    1.0455    0.1503 O   0  0  0  0  0  0  0  0  0  0  0  0
   -1.9690    2.4643    0.2454 C   0  0  0  0  0  0  0  0  0  0  0  0
    2.7518    1.4154   -0.7860 O   0  0  0  0  0  0  0  0  0  0  0  0
    4.0013    0.8263   -1.1289 C   0  0  0  0  0  0  0  0  0  0  0  0
    0.6617   -2.9004   -0.8649 O   0  0  0  0  0  0  0  0  0  0  0  0
   -3.4468   -2.2935    1.2599 H   0  0  0  0  0  0  0  0  0  0  0  0
   -3.7090   -0.8023    0.3286 H   0  0  0  0  0  0  0  0  0  0  0  0
   -2.5677   -0.8441    1.7232 H   0  0  0  0  0  0  0  0  0  0  0  0
    2.6157   -1.3427   -1.1007 H   0  0  0  0  0  0  0  0  0  0  0  0
    0.5052    2.2769   -0.2006 H   0  0  0  0  0  0  0  0  0  0  0  0
   -3.0063    2.7410    0.4573 H   0  0  0  0  0  0  0  0  0  0  0  0
   -1.6861    2.9359   -0.7014 H   0  0  0  0  0  0  0  0  0  0  0  0
   -1.3523    2.8290    1.0732 H   0  0  0  0  0  0  0  0  0  0  0  0
    4.7423    1.6289   -1.1926 H   0  0  0  0  0  0  0  0  0  0  0  0
    3.9521    0.3397   -2.1086 H   0  0  0  0  0  0  0  0  0  0  0  0
    4.3335    0.1267   -0.3547 H   0  0  0  0  0  0  0  0  0  0  0  0
   -0.2458   -3.2825   -0.8956 H   0  0  0  0  0  0  0  0  0  0  0  0
  1  2  1  0
  2  3  2  0
  2  4  1  0
  4  5  2  0
  5  6  1  0
  6  7  2  0
  7  8  1  0
  8  9  2  0
  9 10  1  0
 10 11  1  0
  7 12  1  0
 12 13  1  0
  5 14  1  0
  9  4  1  0
  1 15  1  0
  1 16  1  0
  1 17  1  0
  6 18  1  0
  8 19  1  0
 11 20  1  0
 11 21  1  0
 11 22  1  0
 13 23  1  0
 13 24  1  0
 13 25  1  0
 14 26  1  0
M  END
>  <Name>  (415) 
Xanthoxylin

>  <PubChem ID>  (415) 
66654

>  <CDB ID>  (415) 
CDB0415

>  <Smiles>  (415) 
CC(=O)C1=C(C=C(C=C1OC)OC)O

>  <Chemical class>  (415) 
5,7-Dioxygenated Coumarins

>  <Natural source>  (415) 
Zanthoxylum americanum

>  <Molecular Formula>  (415) 
C10H12O4

>  <InChI-Key>  (415) 
FBUBVLUPUDBFME-UHFFFAOYSA-N

>  <Total Molweight>  (415) 
196.201

>  <cLogP>  (415) 
1.0451

>  <cLogS>  (415) 
-2.04

>  <H-Acceptors>  (415) 
4

>  <H-Donors>  (415) 
1

>  <Rotatable Bonds>  (415) 
3

>  <Polar Surface Area>  (415) 
55.76

$$$$
CDB0416
     RDKit          3D

 39 42  0  0  0  0  0  0  0  0999 V2000
    0.7118   -2.5077   -0.0775 C   0  0  0  0  0  0  0  0  0  0  0  0
   -0.6662   -1.9111    0.1939 C   0  0  0  0  0  0  0  0  0  0  0  0
   -0.6943   -0.4862   -0.3814 C   0  0  0  0  0  0  0  0  0  0  0  0
    0.2803    0.3519    0.2524 O   0  0  0  0  0  0  0  0  0  0  0  0
    1.5509   -0.1619    0.3320 C   0  0  0  0  0  0  0  0  0  0  0  0
    1.8271   -1.5343    0.1805 C   0  0  0  0  0  0  0  0  0  0  0  0
    3.1625   -1.9599    0.2613 C   0  0  0  0  0  0  0  0  0  0  0  0
    4.1919   -1.0634    0.5292 C   0  0  0  0  0  0  0  0  0  0  0  0
    3.8881    0.2808    0.7060 C   0  0  0  0  0  0  0  0  0  0  0  0
    2.5812    0.7533    0.6126 C   0  0  0  0  0  0  0  0  0  0  0  0
    2.3528    2.1819    0.8061 C   0  0  0  0  0  0  0  0  0  0  0  0
    3.3803    2.9958    1.0653 C   0  0  0  0  0  0  0  0  0  0  0  0
    4.7656    2.5090    1.1663 C   0  0  0  0  0  0  0  0  0  0  0  0
    5.6860    3.2823    1.4041 O   0  0  0  0  0  0  0  0  0  0  0  0
    4.9646    1.1489    0.9788 O   0  0  0  0  0  0  0  0  0  0  0  0
    3.5420   -3.2610    0.0883 O   0  0  0  0  0  0  0  0  0  0  0  0
   -2.0558    0.1655   -0.1801 C   0  0  0  0  0  0  0  0  0  0  0  0
   -2.9430    0.2901   -1.2650 C   0  0  0  0  0  0  0  0  0  0  0  0
   -4.1969    0.8593   -1.0678 C   0  0  0  0  0  0  0  0  0  0  0  0
   -4.5799    1.3022    0.1948 C   0  0  0  0  0  0  0  0  0  0  0  0
   -3.7218    1.1895    1.2768 C   0  0  0  0  0  0  0  0  0  0  0  0
   -2.4603    0.6211    1.0901 C   0  0  0  0  0  0  0  0  0  0  0  0
   -5.8142    1.8555    0.3787 O   0  0  0  0  0  0  0  0  0  0  0  0
   -5.0949    1.0021   -2.0893 O   0  0  0  0  0  0  0  0  0  0  0  0
   -1.6410   -2.7647   -0.4137 O   0  0  0  0  0  0  0  0  0  0  0  0
    0.8260   -3.3997    0.5510 H   0  0  0  0  0  0  0  0  0  0  0  0
    0.7741   -2.8463   -1.1201 H   0  0  0  0  0  0  0  0  0  0  0  0
   -0.8430   -1.8983    1.2773 H   0  0  0  0  0  0  0  0  0  0  0  0
   -0.4798   -0.5037   -1.4594 H   0  0  0  0  0  0  0  0  0  0  0  0
    5.2188   -1.4103    0.5979 H   0  0  0  0  0  0  0  0  0  0  0  0
    1.3410    2.5676    0.7371 H   0  0  0  0  0  0  0  0  0  0  0  0
    3.2419    4.0597    1.2143 H   0  0  0  0  0  0  0  0  0  0  0  0
    2.7945   -3.7945   -0.2236 H   0  0  0  0  0  0  0  0  0  0  0  0
   -2.6475   -0.0621   -2.2494 H   0  0  0  0  0  0  0  0  0  0  0  0
   -4.0302    1.5434    2.2560 H   0  0  0  0  0  0  0  0  0  0  0  0
   -1.7884    0.5415    1.9432 H   0  0  0  0  0  0  0  0  0  0  0  0
   -6.2268    1.8373   -0.5077 H   0  0  0  0  0  0  0  0  0  0  0  0
   -4.6799    0.6849   -2.9098 H   0  0  0  0  0  0  0  0  0  0  0  0
   -2.5173   -2.4582   -0.1133 H   0  0  0  0  0  0  0  0  0  0  0  0
  1  2  1  0
  2  3  1  0
  3  4  1  0
  4  5  1  0
  5  6  1  0
  6  7  2  0
  7  8  1  0
  8  9  2  0
  9 10  1  0
 10 11  1  0
 11 12  2  0
 12 13  1  0
 13 14  2  0
 13 15  1  0
  7 16  1  0
  3 17  1  0
 17 18  2  0
 18 19  1  0
 19 20  2  0
 20 21  1  0
 21 22  2  0
 20 23  1  0
 19 24  1  0
  2 25  1  0
  6  1  1  0
 10  5  2  0
 15  9  1  0
 22 17  1  0
  1 26  1  0
  1 27  1  0
  2 28  1  0
  3 29  1  0
  8 30  1  0
 11 31  1  0
 12 32  1  0
 16 33  1  0
 18 34  1  0
 21 35  1  0
 22 36  1  0
 23 37  1  0
 24 38  1  0
 25 39  1  0
M  END
>  <Name>  (416) 
Phyllocoumarin

>  <PubChem ID>  (416) 
44257095

>  <CDB ID>  (416) 
CDB0416

>  <Smiles>  (416) 
C1C(C(OC2=C1C(=CC3=C2C=CC(=O)O3)O)C4=CC(=C(C=C4)O)O)O

>  <Chemical class>  (416) 
5,7-Dioxygenated Coumarins

>  <Natural source>  (416) 
Phyllocladus trichomanoides

>  <Molecular Formula>  (416) 
C18H14O7

>  <InChI-Key>  (416) 
JXVQELAURPRTFD-UHFFFAOYSA-N

>  <Total Molweight>  (416) 
342.302

>  <cLogP>  (416) 
1.6922

>  <cLogS>  (416) 
-2.814

>  <H-Acceptors>  (416) 
7

>  <H-Donors>  (416) 
4

>  <Rotatable Bonds>  (416) 
1

>  <Polar Surface Area>  (416) 
116.45

$$$$
CDB0417
     RDKit          3D

 33 35  0  0  0  0  0  0  0  0999 V2000
    3.2063    1.0454    1.2942 C   0  0  0  0  0  0  0  0  0  0  0  0
    2.5442    0.2824    0.1410 C   0  0  0  0  0  0  0  0  0  0  0  0
    2.3681   -1.1606    0.5335 C   0  0  0  0  0  0  0  0  0  0  0  0
    1.1785   -1.7625    0.5957 C   0  0  0  0  0  0  0  0  0  0  0  0
   -0.0200   -0.9932    0.2689 C   0  0  0  0  0  0  0  0  0  0  0  0
   -1.3053   -1.5825    0.3199 C   0  0  0  0  0  0  0  0  0  0  0  0
   -2.4267   -0.8149    0.0003 C   0  0  0  0  0  0  0  0  0  0  0  0
   -2.2622    0.5200   -0.3641 C   0  0  0  0  0  0  0  0  0  0  0  0
   -1.0090    1.1235   -0.4221 C   0  0  0  0  0  0  0  0  0  0  0  0
    0.1217    0.3562   -0.1016 C   0  0  0  0  0  0  0  0  0  0  0  0
    1.3328    0.9939   -0.1734 O   0  0  0  0  0  0  0  0  0  0  0  0
   -0.9407    2.5278   -0.8150 C   0  0  0  0  0  0  0  0  0  0  0  0
   -2.0583    3.1994   -1.1070 C   0  0  0  0  0  0  0  0  0  0  0  0
   -3.3890    2.5745   -1.0499 C   0  0  0  0  0  0  0  0  0  0  0  0
   -4.3969    3.2155   -1.3234 O   0  0  0  0  0  0  0  0  0  0  0  0
   -3.4359    1.2395   -0.6748 O   0  0  0  0  0  0  0  0  0  0  0  0
   -1.3599   -2.9041    0.6904 O   0  0  0  0  0  0  0  0  0  0  0  0
   -2.6392   -3.5225    0.7499 C   0  0  0  0  0  0  0  0  0  0  0  0
    3.4294    0.3645   -1.1080 C   0  0  0  0  0  0  0  0  0  0  0  0
    2.5675    1.0369    2.1857 H   0  0  0  0  0  0  0  0  0  0  0  0
    3.3533    2.0997    1.0315 H   0  0  0  0  0  0  0  0  0  0  0  0
    4.1789    0.6194    1.5642 H   0  0  0  0  0  0  0  0  0  0  0  0
    3.2610   -1.7309    0.7765 H   0  0  0  0  0  0  0  0  0  0  0  0
    1.0858   -2.8043    0.8823 H   0  0  0  0  0  0  0  0  0  0  0  0
   -3.4326   -1.2185    0.0239 H   0  0  0  0  0  0  0  0  0  0  0  0
    0.0292    3.0114   -0.8646 H   0  0  0  0  0  0  0  0  0  0  0  0
   -2.0373    4.2414   -1.4012 H   0  0  0  0  0  0  0  0  0  0  0  0
   -3.2762   -3.0403    1.4985 H   0  0  0  0  0  0  0  0  0  0  0  0
   -3.1190   -3.5322   -0.2343 H   0  0  0  0  0  0  0  0  0  0  0  0
   -2.4930   -4.5622    1.0583 H   0  0  0  0  0  0  0  0  0  0  0  0
    4.4121   -0.0921   -0.9463 H   0  0  0  0  0  0  0  0  0  0  0  0
    2.9524   -0.1376   -1.9584 H   0  0  0  0  0  0  0  0  0  0  0  0
    3.5802    1.4071   -1.4120 H   0  0  0  0  0  0  0  0  0  0  0  0
  1  2  1  0
  2  3  1  0
  3  4  2  0
  4  5  1  0
  5  6  2  0
  6  7  1  0
  7  8  2  0
  8  9  1  0
  9 10  2  0
 10 11  1  0
  9 12  1  0
 12 13  2  0
 13 14  1  0
 14 15  2  0
 14 16  1  0
  6 17  1  0
 17 18  1  0
  2 19  1  0
 11  2  1  0
 10  5  1  0
 16  8  1  0
  1 20  1  0
  1 21  1  0
  1 22  1  0
  3 23  1  0
  4 24  1  0
  7 25  1  0
 12 26  1  0
 13 27  1  0
 18 28  1  0
 18 29  1  0
 18 30  1  0
 19 31  1  0
 19 32  1  0
 19 33  1  0
M  END
>  <Name>  (417) 
Alloxanthoxyletin

>  <PubChem ID>  (417) 
5317485

>  <CDB ID>  (417) 
CDB0417

>  <Smiles>  (417) 
CC1(C=CC2=C(C=C3C(=C2O1)C=CC(=O)O3)OC)C

>  <Chemical class>  (417) 
5,7-Dioxygenated Coumarins

>  <Natural source>  (417) 
Zanthoxylum americanum

>  <Molecular Formula>  (417) 
C15H14O4

>  <InChI-Key>  (417) 
WTBVBNPZXAQTHI-UHFFFAOYSA-N

>  <Total Molweight>  (417) 
258.272

>  <cLogP>  (417) 
2.4541

>  <cLogS>  (417) 
-3.647

>  <H-Acceptors>  (417) 
4

>  <H-Donors>  (417) 
0

>  <Rotatable Bonds>  (417) 
1

>  <Polar Surface Area>  (417) 
44.76

$$$$
CDB0418
     RDKit          3D

 43 45  0  0  0  0  0  0  0  0999 V2000
    5.2049    0.2658   -1.5923 C   0  0  0  0  0  0  0  0  0  0  0  0
    4.1049    0.6949   -0.6572 C   0  0  0  0  0  0  0  0  0  0  0  0
    4.5847    1.2017    0.6751 C   0  0  0  0  0  0  0  0  0  0  0  0
    2.8123    0.6092   -1.0280 C   0  0  0  0  0  0  0  0  0  0  0  0
    1.6097    1.0216   -0.2251 C   0  0  0  0  0  0  0  0  0  0  0  0
    1.1323   -0.0219    0.7956 C   0  0  0  0  0  0  0  0  0  0  0  0
    0.2798   -1.1934    0.2482 C   0  0  1  0  0  0  0  0  0  0  0  0
    1.0656   -2.1019   -0.7061 C   0  0  0  0  0  0  0  0  0  0  0  0
   -0.1840   -2.0427    1.4132 C   0  0  0  0  0  0  0  0  0  0  0  0
   -1.4294   -1.9942    1.8953 C   0  0  0  0  0  0  0  0  0  0  0  0
   -2.3725   -1.0607    1.2835 C   0  0  0  0  0  0  0  0  0  0  0  0
   -3.6366   -0.7869    1.8327 C   0  0  0  0  0  0  0  0  0  0  0  0
   -4.0626   -1.2927    3.0310 O   0  0  0  0  0  0  0  0  0  0  0  0
   -4.5419    0.0423    1.1768 C   0  0  0  0  0  0  0  0  0  0  0  0
   -4.1745    0.6193   -0.0334 C   0  0  0  0  0  0  0  0  0  0  0  0
   -5.1246    1.4536   -0.6572 O   0  0  0  0  0  0  0  0  0  0  0  0
   -4.8534    2.0797   -1.8652 C   0  0  0  0  0  0  0  0  0  0  0  0
   -5.6628    2.8110   -2.4237 O   0  0  0  0  0  0  0  0  0  0  0  0
   -3.5310    1.8278   -2.4599 C   0  0  0  0  0  0  0  0  0  0  0  0
   -2.6226    1.0401   -1.8770 C   0  0  0  0  0  0  0  0  0  0  0  0
   -2.9241    0.3918   -0.6046 C   0  0  0  0  0  0  0  0  0  0  0  0
   -2.0176   -0.4462    0.0679 C   0  0  0  0  0  0  0  0  0  0  0  0
   -0.8043   -0.6583   -0.5386 O   0  0  0  0  0  0  0  0  0  0  0  0
    5.7902   -0.5432   -1.1431 H   0  0  0  0  0  0  0  0  0  0  0  0
    4.8182   -0.0964   -2.5506 H   0  0  0  0  0  0  0  0  0  0  0  0
    5.8747    1.1067   -1.8003 H   0  0  0  0  0  0  0  0  0  0  0  0
    3.7711    1.4701    1.3536 H   0  0  0  0  0  0  0  0  0  0  0  0
    5.1843    0.4339    1.1754 H   0  0  0  0  0  0  0  0  0  0  0  0
    5.2080    2.0913    0.5371 H   0  0  0  0  0  0  0  0  0  0  0  0
    2.5844    0.2356   -2.0258 H   0  0  0  0  0  0  0  0  0  0  0  0
    1.8429    1.9516    0.3086 H   0  0  0  0  0  0  0  0  0  0  0  0
    0.8000    1.2907   -0.9133 H   0  0  0  0  0  0  0  0  0  0  0  0
    1.9887   -0.4129    1.3611 H   0  0  0  0  0  0  0  0  0  0  0  0
    0.5179    0.5301    1.5218 H   0  0  0  0  0  0  0  0  0  0  0  0
    1.2588   -1.6102   -1.6642 H   0  0  0  0  0  0  0  0  0  0  0  0
    2.0178   -2.4267   -0.2728 H   0  0  0  0  0  0  0  0  0  0  0  0
    0.4847   -2.9991   -0.9555 H   0  0  0  0  0  0  0  0  0  0  0  0
    0.5402   -2.7123    1.8706 H   0  0  0  0  0  0  0  0  0  0  0  0
   -1.7332   -2.6383    2.7104 H   0  0  0  0  0  0  0  0  0  0  0  0
   -3.2897   -1.5594    3.5532 H   0  0  0  0  0  0  0  0  0  0  0  0
   -5.5190    0.2392    1.6078 H   0  0  0  0  0  0  0  0  0  0  0  0
   -3.3366    2.3209   -3.4044 H   0  0  0  0  0  0  0  0  0  0  0  0
   -1.6557    0.8686   -2.3377 H   0  0  0  0  0  0  0  0  0  0  0  0
  1  2  1  0
  2  3  1  0
  2  4  2  3
  4  5  1  0
  5  6  1  0
  7  6  1  1
  7  8  1  0
  7  9  1  0
  9 10  2  0
 10 11  1  0
 11 12  2  0
 12 13  1  0
 12 14  1  0
 14 15  2  0
 15 16  1  0
 16 17  1  0
 17 18  2  0
 17 19  1  0
 19 20  2  0
 20 21  1  0
 21 22  2  0
 22 23  1  0
 23  7  1  0
 22 11  1  0
 21 15  1  0
  1 24  1  0
  1 25  1  0
  1 26  1  0
  3 27  1  0
  3 28  1  0
  3 29  1  0
  4 30  1  0
  5 31  1  0
  5 32  1  0
  6 33  1  0
  6 34  1  0
  8 35  1  0
  8 36  1  0
  8 37  1  0
  9 38  1  0
 10 39  1  0
 13 40  1  0
 14 41  1  0
 19 42  1  0
 20 43  1  0
M  END
>  <Name>  (418) 
Protobruceol-I

>  <PubChem ID>  (418) 
101636143

>  <CDB ID>  (418) 
CDB0418

>  <Smiles>  (418) 
CC(C)=CCC[C@@]1(C)C=CC2=C(O)C=C3OC(=O)C=CC3=C2O1

>  <Chemical class>  (418) 
5,7-Dioxygenated Coumarins

>  <Natural source>  (418) 
Eriostemon brucei var. cinereus

>  <Molecular Formula>  (418) 
C19H20O4

>  <InChI-Key>  (418) 
GYGKRTUNBQDVIZ-IBGZPJMESA-N

>  <Total Molweight>  (418) 
312.364

>  <cLogP>  (418) 
4.3502

>  <cLogS>  (418) 
-4.309

>  <H-Acceptors>  (418) 
4

>  <H-Donors>  (418) 
1

>  <Rotatable Bonds>  (418) 
3

>  <Polar Surface Area>  (418) 
55.76

$$$$
CDB0419
     RDKit          3D

 43 47  0  0  0  0  0  0  0  0999 V2000
   -0.4482    2.7600    2.1706 C   0  0  0  0  0  0  0  0  0  0  0  0
   -0.1789    2.0173    0.8455 C   0  0  0  0  0  0  0  0  0  0  0  0
   -1.3419    0.9696    0.6080 C   0  0  0  0  0  0  0  0  0  0  0  0
   -1.6863    0.6719   -0.8839 C   0  0  0  0  0  0  0  0  0  0  0  0
   -2.4960   -0.6268   -1.1011 C   0  0  0  0  0  0  0  0  0  0  0  0
   -2.0906   -1.8451   -0.2228 C   0  0  0  0  0  0  0  0  0  0  0  0
   -1.9825   -1.4145    1.2348 C   0  0  0  0  0  0  0  0  0  0  0  0
   -0.9312   -0.3224    1.3078 C   0  0  0  0  0  0  0  0  0  0  0  0
    0.2967   -0.7151    0.5464 C   0  0  0  0  0  0  0  0  0  0  0  0
    0.3021   -1.8075   -0.3148 C   0  0  0  0  0  0  0  0  0  0  0  0
   -0.8507   -2.4680   -0.6482 O   0  0  0  0  0  0  0  0  0  0  0  0
    1.4711   -2.1642   -0.9747 C   0  0  0  0  0  0  0  0  0  0  0  0
    2.5899   -1.3392   -0.8460 C   0  0  0  0  0  0  0  0  0  0  0  0
    2.5444   -0.1385   -0.1341 C   0  0  0  0  0  0  0  0  0  0  0  0
    1.3511    0.1939    0.5072 C   0  0  0  0  0  0  0  0  0  0  0  0
    1.1619    1.4513    1.0196 O   0  0  0  0  0  0  0  0  0  0  0  0
    3.7160    0.7247   -0.1465 C   0  0  0  0  0  0  0  0  0  0  0  0
    4.8143    0.3433   -0.8049 C   0  0  0  0  0  0  0  0  0  0  0  0
    4.8928   -0.9314   -1.5387 C   0  0  0  0  0  0  0  0  0  0  0  0
    5.9204   -1.2539   -2.1238 O   0  0  0  0  0  0  0  0  0  0  0  0
    3.7563   -1.7284   -1.5370 O   0  0  0  0  0  0  0  0  0  0  0  0
   -3.1556   -2.9402   -0.3626 C   0  0  0  0  0  0  0  0  0  0  0  0
   -0.0797    3.0693   -0.2682 C   0  0  0  0  0  0  0  0  0  0  0  0
   -1.4019    3.2975    2.1458 H   0  0  0  0  0  0  0  0  0  0  0  0
    0.3485    3.4826    2.3834 H   0  0  0  0  0  0  0  0  0  0  0  0
   -0.4626    2.0665    3.0182 H   0  0  0  0  0  0  0  0  0  0  0  0
   -2.2655    1.3520    1.0640 H   0  0  0  0  0  0  0  0  0  0  0  0
   -0.7760    0.6084   -1.4918 H   0  0  0  0  0  0  0  0  0  0  0  0
   -2.2543    1.5139   -1.2989 H   0  0  0  0  0  0  0  0  0  0  0  0
   -2.4298   -0.8979   -2.1621 H   0  0  0  0  0  0  0  0  0  0  0  0
   -3.5481   -0.3850   -0.8986 H   0  0  0  0  0  0  0  0  0  0  0  0
   -2.9411   -1.0546    1.6269 H   0  0  0  0  0  0  0  0  0  0  0  0
   -1.6678   -2.2643    1.8554 H   0  0  0  0  0  0  0  0  0  0  0  0
   -0.6850   -0.1491    2.3622 H   0  0  0  0  0  0  0  0  0  0  0  0
    1.4977   -3.0362   -1.6202 H   0  0  0  0  0  0  0  0  0  0  0  0
    3.6772    1.6673    0.3890 H   0  0  0  0  0  0  0  0  0  0  0  0
    5.7058    0.9577   -0.8307 H   0  0  0  0  0  0  0  0  0  0  0  0
   -3.2328   -3.2747   -1.4036 H   0  0  0  0  0  0  0  0  0  0  0  0
   -2.8867   -3.8236    0.2282 H   0  0  0  0  0  0  0  0  0  0  0  0
   -4.1417   -2.5941   -0.0359 H   0  0  0  0  0  0  0  0  0  0  0  0
   -1.0376    3.5720   -0.4357 H   0  0  0  0  0  0  0  0  0  0  0  0
    0.2577    2.6245   -1.2100 H   0  0  0  0  0  0  0  0  0  0  0  0
    0.6683    3.8311   -0.0182 H   0  0  0  0  0  0  0  0  0  0  0  0
  1  2  1  0
  2  3  1  0
  3  4  1  0
  4  5  1  0
  5  6  1  0
  6  7  1  0
  7  8  1  0
  8  9  1  0
  9 10  2  0
 10 11  1  0
 10 12  1  0
 12 13  2  0
 13 14  1  0
 14 15  2  0
 15 16  1  0
 14 17  1  0
 17 18  2  0
 18 19  1  0
 19 20  2  0
 19 21  1  0
  6 22  1  0
  2 23  1  0
 16  2  1  0
  8  3  1  0
 11  6  1  0
 15  9  1  0
 21 13  1  0
  1 24  1  0
  1 25  1  0
  1 26  1  0
  3 27  1  0
  4 28  1  0
  4 29  1  0
  5 30  1  0
  5 31  1  0
  7 32  1  0
  7 33  1  0
  8 34  1  0
 12 35  1  0
 17 36  1  0
 18 37  1  0
 22 38  1  0
 22 39  1  0
 22 40  1  0
 23 41  1  0
 23 42  1  0
 23 43  1  0
M  END
>  <Name>  (419) 
Deoxybruceol

>  <PubChem ID>  (419) 
101635470

>  <CDB ID>  (419) 
CDB0419

>  <Smiles>  (419) 
CC1(C2CCC3(CC2C4=C(O3)C=C5C(=C4O1)C=CC(=O)O5)C)C

>  <Chemical class>  (419) 
5,7-Dioxygenated Coumarins

>  <Natural source>  (419) 
Eriostemon brucei

>  <Molecular Formula>  (419) 
C19H20O4

>  <InChI-Key>  (419) 
NHTYZRTXNCKKNM-UHFFFAOYSA-N

>  <Total Molweight>  (419) 
312.364

>  <cLogP>  (419) 
3.8085

>  <cLogS>  (419) 
-4.729

>  <H-Acceptors>  (419) 
4

>  <H-Donors>  (419) 
0

>  <Rotatable Bonds>  (419) 
0

>  <Polar Surface Area>  (419) 
44.76

$$$$
CDB0420
     RDKit          3D

 44 48  0  0  0  0  0  0  0  0999 V2000
   -3.2546   -1.9524    1.1310 C   0  0  0  0  0  0  0  0  0  0  0  0
   -1.9846   -1.7721    0.2735 C   0  0  0  0  0  0  0  0  0  0  0  0
   -1.8906   -0.2603   -0.1855 C   0  0  0  0  0  0  0  0  0  0  0  0
   -1.1687   -0.0108   -1.5452 C   0  0  0  0  0  0  0  0  0  0  0  0
   -0.7129    1.4502   -1.7656 C   0  0  0  0  0  0  0  0  0  0  0  0
   -0.1344    2.1893   -0.5218 C   0  0  0  0  0  0  0  0  0  0  0  0
   -1.0612    2.0033    0.6857 C   0  0  0  0  0  0  0  0  0  0  0  0
   -1.1650    0.5029    0.9221 C   0  0  0  0  0  0  0  0  0  0  0  0
    0.1907   -0.1345    0.9103 C   0  0  0  0  0  0  0  0  0  0  0  0
    0.2505   -1.5086    1.1113 C   0  0  0  0  0  0  0  0  0  0  0  0
   -0.8985   -2.2474    1.1352 O   0  0  0  0  0  0  0  0  0  0  0  0
    1.4728   -2.1581    1.1823 C   0  0  0  0  0  0  0  0  0  0  0  0
    2.6256   -1.4241    0.9058 C   0  0  0  0  0  0  0  0  0  0  0  0
    2.5715   -0.0858    0.5048 C   0  0  0  0  0  0  0  0  0  0  0  0
    1.3213    0.5402    0.4526 C   0  0  0  0  0  0  0  0  0  0  0  0
    1.2099    1.7569   -0.1762 O   0  0  0  0  0  0  0  0  0  0  0  0
    3.8119    0.5703    0.1133 C   0  0  0  0  0  0  0  0  0  0  0  0
    4.9676   -0.0973    0.1763 C   0  0  0  0  0  0  0  0  0  0  0  0
    5.0480   -1.4969    0.6265 C   0  0  0  0  0  0  0  0  0  0  0  0
    6.1273   -2.0745    0.6842 O   0  0  0  0  0  0  0  0  0  0  0  0
    3.8536   -2.1152    0.9683 O   0  0  0  0  0  0  0  0  0  0  0  0
   -2.3632    2.5498    0.4855 O   0  0  0  0  0  0  0  0  0  0  0  0
    0.0150    3.6786   -0.8686 C   0  0  0  0  0  0  0  0  0  0  0  0
   -2.0764   -2.7487   -0.9078 C   0  0  0  0  0  0  0  0  0  0  0  0
   -3.3470   -2.9876    1.4805 H   0  0  0  0  0  0  0  0  0  0  0  0
   -3.2179   -1.3312    2.0321 H   0  0  0  0  0  0  0  0  0  0  0  0
   -4.1601   -1.6973    0.5704 H   0  0  0  0  0  0  0  0  0  0  0  0
   -2.9093    0.1330   -0.3033 H   0  0  0  0  0  0  0  0  0  0  0  0
   -0.2898   -0.6584   -1.6470 H   0  0  0  0  0  0  0  0  0  0  0  0
   -1.8364   -0.2979   -2.3671 H   0  0  0  0  0  0  0  0  0  0  0  0
    0.0283    1.4567   -2.5746 H   0  0  0  0  0  0  0  0  0  0  0  0
   -1.5865    2.0061   -2.1314 H   0  0  0  0  0  0  0  0  0  0  0  0
   -0.6254    2.4766    1.5760 H   0  0  0  0  0  0  0  0  0  0  0  0
   -1.6574    0.3431    1.8892 H   0  0  0  0  0  0  0  0  0  0  0  0
    1.5257   -3.2220    1.3884 H   0  0  0  0  0  0  0  0  0  0  0  0
    3.7760    1.6013   -0.2222 H   0  0  0  0  0  0  0  0  0  0  0  0
    5.9075    0.3625   -0.1033 H   0  0  0  0  0  0  0  0  0  0  0  0
   -2.2985    3.5145    0.5973 H   0  0  0  0  0  0  0  0  0  0  0  0
    0.4066    4.2387   -0.0117 H   0  0  0  0  0  0  0  0  0  0  0  0
    0.7365    3.8143   -1.6829 H   0  0  0  0  0  0  0  0  0  0  0  0
   -0.9333    4.1321   -1.1737 H   0  0  0  0  0  0  0  0  0  0  0  0
   -2.2409   -3.7735   -0.5539 H   0  0  0  0  0  0  0  0  0  0  0  0
   -1.1400   -2.7800   -1.4743 H   0  0  0  0  0  0  0  0  0  0  0  0
   -2.8937   -2.4856   -1.5868 H   0  0  0  0  0  0  0  0  0  0  0  0
  1  2  1  0
  2  3  1  0
  3  4  1  0
  4  5  1  0
  5  6  1  0
  6  7  1  0
  7  8  1  0
  8  9  1  0
  9 10  2  0
 10 11  1  0
 10 12  1  0
 12 13  2  0
 13 14  1  0
 14 15  2  0
 15 16  1  0
 14 17  1  0
 17 18  2  0
 18 19  1  0
 19 20  2  0
 19 21  1  0
  7 22  1  0
  6 23  1  0
  2 24  1  0
 11  2  1  0
  8  3  1  0
 16  6  1  0
 15  9  1  0
 21 13  1  0
  1 25  1  0
  1 26  1  0
  1 27  1  0
  3 28  1  0
  4 29  1  0
  4 30  1  0
  5 31  1  0
  5 32  1  0
  7 33  1  0
  8 34  1  0
 12 35  1  0
 17 36  1  0
 18 37  1  0
 22 38  1  0
 23 39  1  0
 23 40  1  0
 23 41  1  0
 24 42  1  0
 24 43  1  0
 24 44  1  0
M  END
>  <Name>  (420) 
Bruceol

>  <PubChem ID>  (420) 
56841144

>  <CDB ID>  (420) 
CDB0420

>  <Smiles>  (420) 
CC1(C2CCC3(C(C2C4=C(O1)C=C5C(=C4O3)C=CC(=O)O5)O)C)C

>  <Chemical class>  (420) 
5,7-Dioxygenated Coumarins

>  <Natural source>  (420) 
Eriostemon brucei

>  <Molecular Formula>  (420) 
C19H20O5

>  <InChI-Key>  (420) 
AINCADFEINJXSR-UHFFFAOYSA-N

>  <Total Molweight>  (420) 
328.363

>  <cLogP>  (420) 
2.9564

>  <cLogS>  (420) 
-4.33

>  <H-Acceptors>  (420) 
5

>  <H-Donors>  (420) 
1

>  <Rotatable Bonds>  (420) 
0

>  <Polar Surface Area>  (420) 
64.99

$$$$
CDB0421
     RDKit          3D

 29 30  0  0  0  0  0  0  0  0999 V2000
    2.6359   -2.3182    1.0177 C   0  0  0  0  0  0  0  0  0  0  0  0
    2.5271   -0.9679    0.5860 O   0  0  0  0  0  0  0  0  0  0  0  0
    1.2772   -0.4869    0.2836 C   0  0  0  0  0  0  0  0  0  0  0  0
    0.1038   -1.2526    0.3229 C   0  0  0  0  0  0  0  0  0  0  0  0
   -1.1385   -0.6872   -0.0019 C   0  0  0  0  0  0  0  0  0  0  0  0
   -1.2274    0.6705   -0.3620 C   0  0  0  0  0  0  0  0  0  0  0  0
   -0.0389    1.4161   -0.4113 C   0  0  0  0  0  0  0  0  0  0  0  0
    1.2064    0.8642   -0.0927 C   0  0  0  0  0  0  0  0  0  0  0  0
    2.3861    1.7246   -0.1652 C   0  0  0  0  0  0  0  0  0  0  0  0
    2.2743    3.0023   -0.5372 C   0  0  0  0  0  0  0  0  0  0  0  0
    0.9816    3.6028   -0.8914 C   0  0  0  0  0  0  0  0  0  0  0  0
    0.9052    4.7737   -1.2432 O   0  0  0  0  0  0  0  0  0  0  0  0
   -0.1267    2.7735   -0.8090 O   0  0  0  0  0  0  0  0  0  0  0  0
   -2.5531    1.2954   -0.7287 C   0  0  0  0  0  0  0  0  0  0  0  0
   -3.5200    1.1157    0.3017 O   0  0  0  0  0  0  0  0  0  0  0  0
   -2.3301   -1.3708    0.0156 O   0  0  0  0  0  0  0  0  0  0  0  0
   -2.2877   -2.7725    0.2587 C   0  0  0  0  0  0  0  0  0  0  0  0
    2.0689   -2.4855    1.9394 H   0  0  0  0  0  0  0  0  0  0  0  0
    2.3250   -3.0101    0.2282 H   0  0  0  0  0  0  0  0  0  0  0  0
    3.6900   -2.5151    1.2357 H   0  0  0  0  0  0  0  0  0  0  0  0
    0.1564   -2.2945    0.6108 H   0  0  0  0  0  0  0  0  0  0  0  0
    3.3546    1.3072    0.0900 H   0  0  0  0  0  0  0  0  0  0  0  0
    3.1343    3.6576   -0.5976 H   0  0  0  0  0  0  0  0  0  0  0  0
   -2.9327    0.8390   -1.6496 H   0  0  0  0  0  0  0  0  0  0  0  0
   -2.4764    2.3711   -0.9066 H   0  0  0  0  0  0  0  0  0  0  0  0
   -3.4745    0.1735    0.5482 H   0  0  0  0  0  0  0  0  0  0  0  0
   -1.9368   -2.9835    1.2740 H   0  0  0  0  0  0  0  0  0  0  0  0
   -3.3088   -3.1563    0.1736 H   0  0  0  0  0  0  0  0  0  0  0  0
   -1.6752   -3.2862   -0.4896 H   0  0  0  0  0  0  0  0  0  0  0  0
  1  2  1  0
  2  3  1  0
  3  4  2  0
  4  5  1  0
  5  6  2  0
  6  7  1  0
  7  8  2  0
  8  9  1  0
  9 10  2  0
 10 11  1  0
 11 12  2  0
 11 13  1  0
  6 14  1  0
 14 15  1  0
  5 16  1  0
 16 17  1  0
  8  3  1  0
 13  7  1  0
  1 18  1  0
  1 19  1  0
  1 20  1  0
  4 21  1  0
  9 22  1  0
 10 23  1  0
 14 24  1  0
 14 25  1  0
 15 26  1  0
 17 27  1  0
 17 28  1  0
 17 29  1  0
M  END
>  <Name>  (421) 
Murrayacarpin B

>  <PubChem ID>  (421) 
14189867

>  <CDB ID>  (421) 
CDB0421

>  <Smiles>  (421) 
COC1=CC(=C(C2=C1C=CC(=O)O2)CO)OC

>  <Chemical class>  (421) 
5,7-Dioxygenated Coumarins

>  <Natural source>  (421) 
Murraya paniculata

>  <Molecular Formula>  (421) 
C12H12O5

>  <InChI-Key>  (421) 
FAMKZZUKJPKMBR-UHFFFAOYSA-N

>  <Total Molweight>  (421) 
236.222

>  <cLogP>  (421) 
0.7601

>  <cLogS>  (421) 
-2.29

>  <H-Acceptors>  (421) 
5

>  <H-Donors>  (421) 
1

>  <Rotatable Bonds>  (421) 
3

>  <Polar Surface Area>  (421) 
64.99

$$$$
CDB0422
     RDKit          3D

 34 35  0  0  0  0  0  0  0  0999 V2000
    4.9392    1.8793    0.9038 C   0  0  0  0  0  0  0  0  0  0  0  0
    4.1920    0.7680    0.2156 C   0  0  0  0  0  0  0  0  0  0  0  0
    4.7842   -0.1121   -0.4051 O   0  0  0  0  0  0  0  0  0  0  0  0
    2.7086    0.7714    0.3487 C   0  0  0  0  0  0  0  0  0  0  0  0
    1.9690   -0.1420   -0.2974 C   0  0  0  0  0  0  0  0  0  0  0  0
    0.4961   -0.2207   -0.2175 C   0  0  0  0  0  0  0  0  0  0  0  0
   -0.1227   -1.4652    0.0194 C   0  0  0  0  0  0  0  0  0  0  0  0
   -1.5230   -1.5553    0.0722 C   0  0  0  0  0  0  0  0  0  0  0  0
   -2.3285   -0.4246   -0.1230 C   0  0  0  0  0  0  0  0  0  0  0  0
   -1.7252    0.8180   -0.3781 C   0  0  0  0  0  0  0  0  0  0  0  0
   -0.3291    0.8990   -0.4244 C   0  0  0  0  0  0  0  0  0  0  0  0
    0.2917    2.1445   -0.7033 O   0  0  0  0  0  0  0  0  0  0  0  0
   -0.4250    3.3125   -0.9053 C   0  0  0  0  0  0  0  0  0  0  0  0
    0.1184    4.3907   -1.1113 O   0  0  0  0  0  0  0  0  0  0  0  0
   -1.8878    3.1980   -0.8512 C   0  0  0  0  0  0  0  0  0  0  0  0
   -2.5003    2.0370   -0.6050 C   0  0  0  0  0  0  0  0  0  0  0  0
   -3.7010   -0.4357   -0.0855 O   0  0  0  0  0  0  0  0  0  0  0  0
   -4.3522   -1.6770    0.1536 C   0  0  0  0  0  0  0  0  0  0  0  0
    0.7223   -2.5331    0.2041 O   0  0  0  0  0  0  0  0  0  0  0  0
    0.1513   -3.8243    0.3643 C   0  0  0  0  0  0  0  0  0  0  0  0
    5.7580    2.2134    0.2603 H   0  0  0  0  0  0  0  0  0  0  0  0
    4.2878    2.7378    1.0890 H   0  0  0  0  0  0  0  0  0  0  0  0
    5.3373    1.5137    1.8536 H   0  0  0  0  0  0  0  0  0  0  0  0
    2.2701    1.5361    0.9776 H   0  0  0  0  0  0  0  0  0  0  0  0
    2.4476   -0.9119   -0.9014 H   0  0  0  0  0  0  0  0  0  0  0  0
   -1.9865   -2.5131    0.2690 H   0  0  0  0  0  0  0  0  0  0  0  0
   -2.4426    4.1123   -1.0216 H   0  0  0  0  0  0  0  0  0  0  0  0
   -3.5836    1.9819   -0.5711 H   0  0  0  0  0  0  0  0  0  0  0  0
   -5.4312   -1.4955    0.1414 H   0  0  0  0  0  0  0  0  0  0  0  0
   -4.1276   -2.3994   -0.6379 H   0  0  0  0  0  0  0  0  0  0  0  0
   -4.0931   -2.0743    1.1404 H   0  0  0  0  0  0  0  0  0  0  0  0
    0.9711   -4.5442    0.4481 H   0  0  0  0  0  0  0  0  0  0  0  0
   -0.4484   -4.1033   -0.5082 H   0  0  0  0  0  0  0  0  0  0  0  0
   -0.4369   -3.8820    1.2858 H   0  0  0  0  0  0  0  0  0  0  0  0
  1  2  1  0
  2  3  2  0
  2  4  1  0
  4  5  2  3
  5  6  1  0
  6  7  2  0
  7  8  1  0
  8  9  2  0
  9 10  1  0
 10 11  2  0
 11 12  1  0
 12 13  1  0
 13 14  2  0
 13 15  1  0
 15 16  2  0
  9 17  1  0
 17 18  1  0
  7 19  1  0
 19 20  1  0
 11  6  1  0
 16 10  1  0
  1 21  1  0
  1 22  1  0
  1 23  1  0
  4 24  1  0
  5 25  1  0
  8 26  1  0
 15 27  1  0
 16 28  1  0
 18 29  1  0
 18 30  1  0
 18 31  1  0
 20 32  1  0
 20 33  1  0
 20 34  1  0
M  END
>  <Name>  (422) 
Toddalenone

>  <PubChem ID>  (422) 
101893838

>  <CDB ID>  (422) 
CDB0422

>  <Smiles>  (422) 
CC(=O)C=CC1=C(C=C(C2=C1OC(=O)C=C2)OC)OC

>  <Chemical class>  (422) 
5,7-Dioxygenated Coumarins

>  <Natural source>  (422) 
Toddalia asiatica

>  <Molecular Formula>  (422) 
C15H14O5

>  <InChI-Key>  (422) 
MNCJDGPGSIIWJA-UHFFFAOYSA-N

>  <Total Molweight>  (422) 
274.271

>  <cLogP>  (422) 
1.8494

>  <cLogS>  (422) 
-3.236

>  <H-Acceptors>  (422) 
5

>  <H-Donors>  (422) 
0

>  <Rotatable Bonds>  (422) 
4

>  <Polar Surface Area>  (422) 
61.83

$$$$
CDB0423
     RDKit          3D

 38 39  0  0  0  0  0  0  0  0999 V2000
    4.5165   -0.9831   -0.5624 C   0  0  0  0  0  0  0  0  0  0  0  0
    3.7949    0.0404    0.3135 C   0  0  0  0  0  0  0  0  0  0  0  0
    4.3298   -0.0024    1.7443 C   0  0  0  0  0  0  0  0  0  0  0  0
    2.3102   -0.2239    0.3041 C   0  0  0  0  0  0  0  0  0  0  0  0
    1.4017    0.6567   -0.1457 C   0  0  0  0  0  0  0  0  0  0  0  0
   -0.0524    0.4053   -0.1439 C   0  0  0  0  0  0  0  0  0  0  0  0
   -0.9224    1.3406    0.4516 C   0  0  0  0  0  0  0  0  0  0  0  0
   -2.3080    1.1131    0.4427 C   0  0  0  0  0  0  0  0  0  0  0  0
   -2.8493   -0.0329   -0.1572 C   0  0  0  0  0  0  0  0  0  0  0  0
   -1.9930   -0.9631   -0.7698 C   0  0  0  0  0  0  0  0  0  0  0  0
   -0.6142   -0.7276   -0.7583 C   0  0  0  0  0  0  0  0  0  0  0  0
    0.2604   -1.6427   -1.4009 O   0  0  0  0  0  0  0  0  0  0  0  0
   -0.1871   -2.7930   -2.0281 C   0  0  0  0  0  0  0  0  0  0  0  0
    0.5694   -3.5893   -2.5709 O   0  0  0  0  0  0  0  0  0  0  0  0
   -1.6379   -3.0222   -2.0123 C   0  0  0  0  0  0  0  0  0  0  0  0
   -2.4859   -2.1722   -1.4276 C   0  0  0  0  0  0  0  0  0  0  0  0
   -4.1909   -0.3225   -0.2030 O   0  0  0  0  0  0  0  0  0  0  0  0
   -5.0900    0.5796    0.4291 C   0  0  0  0  0  0  0  0  0  0  0  0
   -0.3288    2.4459    1.0137 O   0  0  0  0  0  0  0  0  0  0  0  0
   -1.1523    3.3625    1.7211 C   0  0  0  0  0  0  0  0  0  0  0  0
    4.1505   -0.9433   -1.5945 H   0  0  0  0  0  0  0  0  0  0  0  0
    5.5935   -0.7840   -0.5827 H   0  0  0  0  0  0  0  0  0  0  0  0
    4.3705   -2.0045   -0.1929 H   0  0  0  0  0  0  0  0  0  0  0  0
    3.9986    1.0388   -0.0945 H   0  0  0  0  0  0  0  0  0  0  0  0
    3.8299    0.7435    2.3722 H   0  0  0  0  0  0  0  0  0  0  0  0
    5.4037    0.2127    1.7623 H   0  0  0  0  0  0  0  0  0  0  0  0
    4.1764   -0.9858    2.2030 H   0  0  0  0  0  0  0  0  0  0  0  0
    1.9867   -1.1905    0.6871 H   0  0  0  0  0  0  0  0  0  0  0  0
    1.7072    1.6362   -0.5055 H   0  0  0  0  0  0  0  0  0  0  0  0
   -2.9682    1.8373    0.9013 H   0  0  0  0  0  0  0  0  0  0  0  0
   -1.9808   -3.9233   -2.5052 H   0  0  0  0  0  0  0  0  0  0  0  0
   -3.5533   -2.3669   -1.4331 H   0  0  0  0  0  0  0  0  0  0  0  0
   -4.8869    0.6530    1.5025 H   0  0  0  0  0  0  0  0  0  0  0  0
   -6.1020    0.1810    0.3091 H   0  0  0  0  0  0  0  0  0  0  0  0
   -5.0617    1.5638   -0.0497 H   0  0  0  0  0  0  0  0  0  0  0  0
   -1.6654    2.8726    2.5551 H   0  0  0  0  0  0  0  0  0  0  0  0
   -0.5049    4.1391    2.1396 H   0  0  0  0  0  0  0  0  0  0  0  0
   -1.8642    3.8510    1.0480 H   0  0  0  0  0  0  0  0  0  0  0  0
  1  2  1  0
  2  3  1  0
  2  4  1  0
  4  5  2  3
  5  6  1  0
  6  7  2  0
  7  8  1  0
  8  9  2  0
  9 10  1  0
 10 11  2  0
 11 12  1  0
 12 13  1  0
 13 14  2  0
 13 15  1  0
 15 16  2  0
  9 17  1  0
 17 18  1  0
  7 19  1  0
 19 20  1  0
 11  6  1  0
 16 10  1  0
  1 21  1  0
  1 22  1  0
  1 23  1  0
  2 24  1  0
  3 25  1  0
  3 26  1  0
  3 27  1  0
  4 28  1  0
  5 29  1  0
  8 30  1  0
 15 31  1  0
 16 32  1  0
 18 33  1  0
 18 34  1  0
 18 35  1  0
 20 36  1  0
 20 37  1  0
 20 38  1  0
M  END
>  <Name>  (423) 
Gleinene

>  <PubChem ID>  (423) 
15609901

>  <CDB ID>  (423) 
CDB0423

>  <Smiles>  (423) 
CC(C)C=CC1=C(C=C(C2=C1OC(=O)C=C2)OC)OC

>  <Chemical class>  (423) 
5,7-Dioxygenated Coumarins

>  <Natural source>  (423) 
Murraya gleinei

>  <Molecular Formula>  (423) 
C16H18O4

>  <InChI-Key>  (423) 
FFNZQIVNQOWUPG-UHFFFAOYSA-N

>  <Total Molweight>  (423) 
274.315

>  <cLogP>  (423) 
3.1207

>  <cLogS>  (423) 
-3.744

>  <H-Acceptors>  (423) 
4

>  <H-Donors>  (423) 
0

>  <Rotatable Bonds>  (423) 
4

>  <Polar Surface Area>  (423) 
44.76

$$$$
CDB0424
     RDKit          3D

 35 36  0  0  0  0  0  0  0  0999 V2000
    3.6154    0.7664   -0.2040 C   0  0  0  0  0  0  0  0  0  0  0  0
    2.9780   -0.5643    0.0844 C   0  0  0  0  0  0  0  0  0  0  0  0
    1.8000   -0.9900   -0.4138 C   0  0  0  0  0  0  0  0  0  0  0  0
    0.8703   -0.2770   -1.3616 C   0  0  0  0  0  0  0  0  0  0  0  0
   -0.4408    0.1027   -0.7034 C   0  0  0  0  0  0  0  0  0  0  0  0
   -0.6197    1.3671   -0.1088 C   0  0  0  0  0  0  0  0  0  0  0  0
   -1.8384    1.6862    0.5054 C   0  0  0  0  0  0  0  0  0  0  0  0
   -2.8723    0.7468    0.5492 C   0  0  0  0  0  0  0  0  0  0  0  0
   -2.7152   -0.5198   -0.0155 C   0  0  0  0  0  0  0  0  0  0  0  0
   -1.5002   -0.8211   -0.6325 C   0  0  0  0  0  0  0  0  0  0  0  0
   -1.3029   -2.0992   -1.2115 O   0  0  0  0  0  0  0  0  0  0  0  0
   -2.2820   -3.0816   -1.1916 C   0  0  0  0  0  0  0  0  0  0  0  0
   -2.1131   -4.1893   -1.6875 O   0  0  0  0  0  0  0  0  0  0  0  0
   -3.5526   -2.7317   -0.5401 C   0  0  0  0  0  0  0  0  0  0  0  0
   -3.7621   -1.5339    0.0123 C   0  0  0  0  0  0  0  0  0  0  0  0
   -4.0597    1.0674    1.1529 O   0  0  0  0  0  0  0  0  0  0  0  0
    0.4389    2.2333   -0.2022 O   0  0  0  0  0  0  0  0  0  0  0  0
    0.4368    3.3681    0.6538 C   0  0  0  0  0  0  0  0  0  0  0  0
    3.7721   -1.4381    1.0204 C   0  0  0  0  0  0  0  0  0  0  0  0
    3.0432    1.3870   -0.8956 H   0  0  0  0  0  0  0  0  0  0  0  0
    4.6073    0.6196   -0.6444 H   0  0  0  0  0  0  0  0  0  0  0  0
    3.7320    1.3351    0.7246 H   0  0  0  0  0  0  0  0  0  0  0  0
    1.4499   -1.9821   -0.1267 H   0  0  0  0  0  0  0  0  0  0  0  0
    1.3308    0.6033   -1.8193 H   0  0  0  0  0  0  0  0  0  0  0  0
    0.6743   -0.9388   -2.2153 H   0  0  0  0  0  0  0  0  0  0  0  0
   -1.9969    2.6644    0.9437 H   0  0  0  0  0  0  0  0  0  0  0  0
   -4.3111   -3.5044   -0.5336 H   0  0  0  0  0  0  0  0  0  0  0  0
   -4.7067   -1.2942    0.4893 H   0  0  0  0  0  0  0  0  0  0  0  0
   -4.0142    1.9776    1.4891 H   0  0  0  0  0  0  0  0  0  0  0  0
    1.4165    3.8488    0.5728 H   0  0  0  0  0  0  0  0  0  0  0  0
    0.2924    3.0804    1.7007 H   0  0  0  0  0  0  0  0  0  0  0  0
   -0.3174    4.0946    0.3351 H   0  0  0  0  0  0  0  0  0  0  0  0
    3.9097   -0.9350    1.9832 H   0  0  0  0  0  0  0  0  0  0  0  0
    4.7580   -1.6516    0.5947 H   0  0  0  0  0  0  0  0  0  0  0  0
    3.2796   -2.3968    1.2144 H   0  0  0  0  0  0  0  0  0  0  0  0
  1  2  1  0
  2  3  2  3
  3  4  1  0
  4  5  1  0
  5  6  2  0
  6  7  1  0
  7  8  2  0
  8  9  1  0
  9 10  2  0
 10 11  1  0
 11 12  1  0
 12 13  2  0
 12 14  1  0
 14 15  2  0
  8 16  1  0
  6 17  1  0
 17 18  1  0
  2 19  1  0
 10  5  1  0
 15  9  1  0
  1 20  1  0
  1 21  1  0
  1 22  1  0
  3 23  1  0
  4 24  1  0
  4 25  1  0
  7 26  1  0
 14 27  1  0
 15 28  1  0
 16 29  1  0
 18 30  1  0
 18 31  1  0
 18 32  1  0
 19 33  1  0
 19 34  1  0
 19 35  1  0
M  END
>  <Name>  (424) 
Sibiricol

>  <PubChem ID>  (424) 
13917413

>  <CDB ID>  (424) 
CDB0424

>  <Smiles>  (424) 
CC(=CCC1=C(C=C(C2=C1OC(=O)C=C2)O)OC)C

>  <Chemical class>  (424) 
5,7-Dioxygenated Coumarins

>  <Natural source>  (424) 
Seseli sibiricum

>  <Molecular Formula>  (424) 
C15H16O4

>  <InChI-Key>  (424) 
MKGYIKJRURRPKS-UHFFFAOYSA-N

>  <Total Molweight>  (424) 
260.288

>  <cLogP>  (424) 
3.1042

>  <cLogS>  (424) 
-3.031

>  <H-Acceptors>  (424) 
4

>  <H-Donors>  (424) 
1

>  <Rotatable Bonds>  (424) 
3

>  <Polar Surface Area>  (424) 
55.76

$$$$
CDB0425
     RDKit          3D

 38 39  0  0  0  0  0  0  0  0999 V2000
    4.2170   -0.2601    1.6721 C   0  0  0  0  0  0  0  0  0  0  0  0
    3.3930   -0.3881    0.4172 C   0  0  0  0  0  0  0  0  0  0  0  0
    2.4697    0.5441    0.1074 C   0  0  0  0  0  0  0  0  0  0  0  0
    1.5542    0.5964   -1.0879 C   0  0  0  0  0  0  0  0  0  0  0  0
    0.0989    0.4298   -0.6995 C   0  0  0  0  0  0  0  0  0  0  0  0
   -0.7012    1.5367   -0.3641 C   0  0  0  0  0  0  0  0  0  0  0  0
   -2.0400    1.3456    0.0121 C   0  0  0  0  0  0  0  0  0  0  0  0
   -2.5994    0.0608    0.0741 C   0  0  0  0  0  0  0  0  0  0  0  0
   -1.8062   -1.0528   -0.2447 C   0  0  0  0  0  0  0  0  0  0  0  0
   -0.4766   -0.8494   -0.6239 C   0  0  0  0  0  0  0  0  0  0  0  0
    0.3440   -1.9577   -0.9485 O   0  0  0  0  0  0  0  0  0  0  0  0
   -0.1111   -3.2648   -0.8925 C   0  0  0  0  0  0  0  0  0  0  0  0
    0.6018   -4.2241   -1.1627 O   0  0  0  0  0  0  0  0  0  0  0  0
   -1.5129   -3.4524   -0.4948 C   0  0  0  0  0  0  0  0  0  0  0  0
   -2.3102   -2.4240   -0.1933 C   0  0  0  0  0  0  0  0  0  0  0  0
   -3.8980   -0.2029    0.4349 O   0  0  0  0  0  0  0  0  0  0  0  0
   -4.7334    0.8982    0.7679 C   0  0  0  0  0  0  0  0  0  0  0  0
   -0.0853    2.7604   -0.4345 O   0  0  0  0  0  0  0  0  0  0  0  0
   -0.8335    3.9089   -0.0584 C   0  0  0  0  0  0  0  0  0  0  0  0
    3.6988   -1.6171   -0.3946 C   0  0  0  0  0  0  0  0  0  0  0  0
    5.2819   -0.2088    1.4226 H   0  0  0  0  0  0  0  0  0  0  0  0
    3.9666    0.6389    2.2452 H   0  0  0  0  0  0  0  0  0  0  0  0
    4.0527   -1.1251    2.3230 H   0  0  0  0  0  0  0  0  0  0  0  0
    2.3459    1.3910    0.7829 H   0  0  0  0  0  0  0  0  0  0  0  0
    1.8174   -0.1404   -1.8526 H   0  0  0  0  0  0  0  0  0  0  0  0
    1.7010    1.5587   -1.5943 H   0  0  0  0  0  0  0  0  0  0  0  0
   -2.6496    2.2044    0.2604 H   0  0  0  0  0  0  0  0  0  0  0  0
   -1.8633   -4.4763   -0.4607 H   0  0  0  0  0  0  0  0  0  0  0  0
   -3.3419   -2.5912    0.0975 H   0  0  0  0  0  0  0  0  0  0  0  0
   -4.3507    1.4333    1.6431 H   0  0  0  0  0  0  0  0  0  0  0  0
   -5.7202    0.5022    1.0263 H   0  0  0  0  0  0  0  0  0  0  0  0
   -4.8589    1.5710   -0.0867 H   0  0  0  0  0  0  0  0  0  0  0  0
   -1.1548    3.8468    0.9865 H   0  0  0  0  0  0  0  0  0  0  0  0
   -0.1780    4.7800   -0.1530 H   0  0  0  0  0  0  0  0  0  0  0  0
   -1.6859    4.0602   -0.7285 H   0  0  0  0  0  0  0  0  0  0  0  0
    3.1266   -1.6850   -1.3213 H   0  0  0  0  0  0  0  0  0  0  0  0
    3.4828   -2.5166    0.1916 H   0  0  0  0  0  0  0  0  0  0  0  0
    4.7591   -1.6311   -0.6684 H   0  0  0  0  0  0  0  0  0  0  0  0
  1  2  1  0
  2  3  2  3
  3  4  1  0
  4  5  1  0
  5  6  2  0
  6  7  1  0
  7  8  2  0
  8  9  1  0
  9 10  2  0
 10 11  1  0
 11 12  1  0
 12 13  2  0
 12 14  1  0
 14 15  2  0
  8 16  1  0
 16 17  1  0
  6 18  1  0
 18 19  1  0
  2 20  1  0
 10  5  1  0
 15  9  1  0
  1 21  1  0
  1 22  1  0
  1 23  1  0
  3 24  1  0
  4 25  1  0
  4 26  1  0
  7 27  1  0
 14 28  1  0
 15 29  1  0
 17 30  1  0
 17 31  1  0
 17 32  1  0
 19 33  1  0
 19 34  1  0
 19 35  1  0
 20 36  1  0
 20 37  1  0
 20 38  1  0
M  END
>  <Name>  (425) 
Coumurrayin

>  <PubChem ID>  (425) 
176911

>  <CDB ID>  (425) 
CDB0425

>  <Smiles>  (425) 
CC(=CCC1=C(C=C(C2=C1OC(=O)C=C2)OC)OC)C

>  <Chemical class>  (425) 
5,7-Dioxygenated Coumarins

>  <Natural source>  (425) 
Murraya paniculata

>  <Molecular Formula>  (425) 
C16H18O4

>  <InChI-Key>  (425) 
CPXPWRXPEOMRNV-UHFFFAOYSA-N

>  <Total Molweight>  (425) 
274.315

>  <cLogP>  (425) 
3.3799

>  <cLogS>  (425) 
-3.345

>  <H-Acceptors>  (425) 
4

>  <H-Donors>  (425) 
0

>  <Rotatable Bonds>  (425) 
4

>  <Polar Surface Area>  (425) 
44.76

$$$$
CDB0426
     RDKit          3D

 48 49  0  0  0  0  0  0  0  0999 V2000
   -4.9055    1.5596   -1.7609 C   0  0  0  0  0  0  0  0  0  0  0  0
   -4.3524    1.3258   -0.3790 C   0  0  0  0  0  0  0  0  0  0  0  0
   -3.8452    0.1237   -0.0398 C   0  0  0  0  0  0  0  0  0  0  0  0
   -3.2522   -0.3063    1.2766 C   0  0  0  0  0  0  0  0  0  0  0  0
   -1.7683   -0.5941    1.1653 C   0  0  0  0  0  0  0  0  0  0  0  0
   -1.2957   -1.8788    0.8288 C   0  0  0  0  0  0  0  0  0  0  0  0
    0.0803   -2.1022    0.7047 C   0  0  0  0  0  0  0  0  0  0  0  0
    0.9868   -1.0529    0.8913 C   0  0  0  0  0  0  0  0  0  0  0  0
    0.5466    0.2247    1.2429 C   0  0  0  0  0  0  0  0  0  0  0  0
   -0.8272    0.4342    1.3641 C   0  0  0  0  0  0  0  0  0  0  0  0
   -1.3142    1.7219    1.6963 O   0  0  0  0  0  0  0  0  0  0  0  0
   -0.4735    2.8051    1.9000 C   0  0  0  0  0  0  0  0  0  0  0  0
   -0.8936    3.9240    2.1701 O   0  0  0  0  0  0  0  0  0  0  0  0
    0.9696    2.5479    1.7813 C   0  0  0  0  0  0  0  0  0  0  0  0
    1.4548    1.3415    1.4754 C   0  0  0  0  0  0  0  0  0  0  0  0
    2.3314   -1.3060    0.7792 O   0  0  0  0  0  0  0  0  0  0  0  0
    2.7186   -1.3780   -0.5998 C   0  0  0  0  0  0  0  0  0  0  0  0
    4.2083   -1.2090   -0.6469 C   0  0  0  0  0  0  0  0  0  0  0  0
    4.9273   -0.2413   -1.2503 C   0  0  0  0  0  0  0  0  0  0  0  0
    6.4333   -0.2567   -1.1864 C   0  0  0  0  0  0  0  0  0  0  0  0
    4.3578    0.9222   -2.0142 C   0  0  0  0  0  0  0  0  0  0  0  0
   -2.2542   -2.8406    0.6388 O   0  0  0  0  0  0  0  0  0  0  0  0
   -1.8186   -4.1602    0.3381 C   0  0  0  0  0  0  0  0  0  0  0  0
   -4.4207    2.5295    0.5206 C   0  0  0  0  0  0  0  0  0  0  0  0
   -4.8351    0.6689   -2.3941 H   0  0  0  0  0  0  0  0  0  0  0  0
   -4.3546    2.3646   -2.2582 H   0  0  0  0  0  0  0  0  0  0  0  0
   -5.9614    1.8435   -1.7035 H   0  0  0  0  0  0  0  0  0  0  0  0
   -3.8565   -0.6700   -0.7873 H   0  0  0  0  0  0  0  0  0  0  0  0
   -3.7849   -1.2019    1.6203 H   0  0  0  0  0  0  0  0  0  0  0  0
   -3.4272    0.4209    2.0751 H   0  0  0  0  0  0  0  0  0  0  0  0
    0.4785   -3.0825    0.4671 H   0  0  0  0  0  0  0  0  0  0  0  0
    1.6183    3.3963    1.9598 H   0  0  0  0  0  0  0  0  0  0  0  0
    2.5241    1.1727    1.3986 H   0  0  0  0  0  0  0  0  0  0  0  0
    2.1939   -0.6283   -1.2000 H   0  0  0  0  0  0  0  0  0  0  0  0
    2.4666   -2.3700   -0.9935 H   0  0  0  0  0  0  0  0  0  0  0  0
    4.7443   -1.9926   -0.1117 H   0  0  0  0  0  0  0  0  0  0  0  0
    6.8178   -1.1152   -0.6257 H   0  0  0  0  0  0  0  0  0  0  0  0
    6.8013    0.6512   -0.6973 H   0  0  0  0  0  0  0  0  0  0  0  0
    6.8545   -0.3041   -2.1960 H   0  0  0  0  0  0  0  0  0  0  0  0
    4.6837    0.8808   -3.0588 H   0  0  0  0  0  0  0  0  0  0  0  0
    3.2669    0.9572   -2.0107 H   0  0  0  0  0  0  0  0  0  0  0  0
    4.7109    1.8641   -1.5807 H   0  0  0  0  0  0  0  0  0  0  0  0
   -1.2799   -4.1897   -0.6146 H   0  0  0  0  0  0  0  0  0  0  0  0
   -2.7075   -4.7902    0.2368 H   0  0  0  0  0  0  0  0  0  0  0  0
   -1.2109   -4.5706    1.1513 H   0  0  0  0  0  0  0  0  0  0  0  0
   -5.4570    2.8724    0.6099 H   0  0  0  0  0  0  0  0  0  0  0  0
   -3.8232    3.3455    0.1007 H   0  0  0  0  0  0  0  0  0  0  0  0
   -4.0556    2.3432    1.5319 H   0  0  0  0  0  0  0  0  0  0  0  0
  1  2  1  0
  2  3  2  3
  3  4  1  0
  4  5  1  0
  5  6  2  0
  6  7  1  0
  7  8  2  0
  8  9  1  0
  9 10  2  0
 10 11  1  0
 11 12  1  0
 12 13  2  0
 12 14  1  0
 14 15  2  0
  8 16  1  0
 16 17  1  0
 17 18  1  0
 18 19  2  3
 19 20  1  0
 19 21  1  0
  6 22  1  0
 22 23  1  0
  2 24  1  0
 10  5  1  0
 15  9  1  0
  1 25  1  0
  1 26  1  0
  1 27  1  0
  3 28  1  0
  4 29  1  0
  4 30  1  0
  7 31  1  0
 14 32  1  0
 15 33  1  0
 17 34  1  0
 17 35  1  0
 18 36  1  0
 20 37  1  0
 20 38  1  0
 20 39  1  0
 21 40  1  0
 21 41  1  0
 21 42  1  0
 23 43  1  0
 23 44  1  0
 23 45  1  0
 24 46  1  0
 24 47  1  0
 24 48  1  0
M  END
>  <Name>  (426) 
Sesibiricin

>  <PubChem ID>  (426) 
12315487

>  <CDB ID>  (426) 
CDB0426

>  <Smiles>  (426) 
CC(=CCC1=C(C=C(C2=C1OC(=O)C=C2)OCC=C(C)C)OC)C

>  <Chemical class>  (426) 
5,7-Dioxygenated Coumarins

>  <Natural source>  (426) 
Seseli sibiricum

>  <Molecular Formula>  (426) 
C20H24O4

>  <InChI-Key>  (426) 
CHXXLEUCXDMIPM-UHFFFAOYSA-N

>  <Total Molweight>  (426) 
328.407

>  <cLogP>  (426) 
5.0492

>  <cLogS>  (426) 
-4.081

>  <H-Acceptors>  (426) 
4

>  <H-Donors>  (426) 
0

>  <Rotatable Bonds>  (426) 
6

>  <Polar Surface Area>  (426) 
44.76

$$$$
CDB0427
     RDKit          3D

 39 40  0  0  0  0  0  0  0  0999 V2000
   -3.3012   -0.8397    0.4077 C   0  0  0  0  0  0  0  0  0  0  0  0
   -2.9957   -0.1033   -0.6746 C   0  0  0  0  0  0  0  0  0  0  0  0
   -3.3407   -0.5986   -2.0547 C   0  0  0  0  0  0  0  0  0  0  0  0
   -2.3327    1.2625   -0.6404 C   0  0  1  0  0  0  0  0  0  0  0  0
   -3.3903    2.2292   -0.6110 O   0  0  0  0  0  0  0  0  0  0  0  0
   -1.3492    1.5719    0.5108 C   0  0  0  0  0  0  0  0  0  0  0  0
   -0.0458    0.7964    0.4541 C   0  0  0  0  0  0  0  0  0  0  0  0
    0.2471   -0.2089    1.3895 C   0  0  0  0  0  0  0  0  0  0  0  0
   -0.7017   -0.4562    2.4111 O   0  0  0  0  0  0  0  0  0  0  0  0
   -0.5300   -1.4409    3.3708 C   0  0  0  0  0  0  0  0  0  0  0  0
   -1.3672   -1.6685    4.2359 O   0  0  0  0  0  0  0  0  0  0  0  0
    0.7191   -2.2096    3.3028 C   0  0  0  0  0  0  0  0  0  0  0  0
    1.6396   -1.9848    2.3617 C   0  0  0  0  0  0  0  0  0  0  0  0
    1.4316   -0.9519    1.3481 C   0  0  0  0  0  0  0  0  0  0  0  0
    2.3710   -0.6801    0.3411 C   0  0  0  0  0  0  0  0  0  0  0  0
    3.5118   -1.4443    0.3525 O   0  0  0  0  0  0  0  0  0  0  0  0
    4.4786   -1.2131   -0.6641 C   0  0  0  0  0  0  0  0  0  0  0  0
    2.1059    0.3324   -0.5908 C   0  0  0  0  0  0  0  0  0  0  0  0
    0.9136    1.0705   -0.5384 C   0  0  0  0  0  0  0  0  0  0  0  0
    0.5976    2.0872   -1.4027 O   0  0  0  0  0  0  0  0  0  0  0  0
    1.5278    2.4136   -2.4264 C   0  0  0  0  0  0  0  0  0  0  0  0
   -3.1037   -0.5015    1.4191 H   0  0  0  0  0  0  0  0  0  0  0  0
   -3.7839   -1.8087    0.3160 H   0  0  0  0  0  0  0  0  0  0  0  0
   -4.0041    0.1113   -2.5593 H   0  0  0  0  0  0  0  0  0  0  0  0
   -2.4316   -0.7143   -2.6540 H   0  0  0  0  0  0  0  0  0  0  0  0
   -3.8485   -1.5687   -2.0318 H   0  0  0  0  0  0  0  0  0  0  0  0
   -1.8132    1.4162   -1.5923 H   0  0  0  0  0  0  0  0  0  0  0  0
   -4.0009    1.9502    0.0929 H   0  0  0  0  0  0  0  0  0  0  0  0
   -1.1068    2.6443    0.4904 H   0  0  0  0  0  0  0  0  0  0  0  0
   -1.8499    1.4527    1.4789 H   0  0  0  0  0  0  0  0  0  0  0  0
    0.8511   -2.9707    4.0616 H   0  0  0  0  0  0  0  0  0  0  0  0
    2.5547   -2.5671    2.3345 H   0  0  0  0  0  0  0  0  0  0  0  0
    4.0615   -1.4077   -1.6576 H   0  0  0  0  0  0  0  0  0  0  0  0
    4.8878   -0.1999   -0.5956 H   0  0  0  0  0  0  0  0  0  0  0  0
    5.3028   -1.9154   -0.5067 H   0  0  0  0  0  0  0  0  0  0  0  0
    2.8333    0.5519   -1.3612 H   0  0  0  0  0  0  0  0  0  0  0  0
    2.4763    2.7586   -2.0022 H   0  0  0  0  0  0  0  0  0  0  0  0
    1.6798    1.5681   -3.1052 H   0  0  0  0  0  0  0  0  0  0  0  0
    1.1059    3.2370   -3.0107 H   0  0  0  0  0  0  0  0  0  0  0  0
  1  2  2  0
  2  3  1  0
  2  4  1  0
  4  5  1  0
  4  6  1  0
  6  7  1  0
  7  8  1  0
  8  9  1  0
  9 10  1  0
 10 11  2  0
 10 12  1  0
 12 13  2  0
 13 14  1  0
 14 15  1  0
 15 16  1  0
 16 17  1  0
 15 18  2  0
 18 19  1  0
 19 20  1  0
 20 21  1  0
 19  7  2  0
 14  8  2  0
  1 22  1  0
  1 23  1  0
  3 24  1  0
  3 25  1  0
  3 26  1  0
  4 27  1  6
  5 28  1  0
  6 29  1  0
  6 30  1  0
 12 31  1  0
 13 32  1  0
 17 33  1  0
 17 34  1  0
 17 35  1  0
 18 36  1  0
 21 37  1  0
 21 38  1  0
 21 39  1  0
M  END
>  <Name>  (427) 
Omphamurin

>  <PubChem ID>  (427) 
157112

>  <CDB ID>  (427) 
CDB0427

>  <Smiles>  (427) 
C=C(C)[C@@H](O)CC1=C2OC(=O)C=CC2=C(OC)C=C1OC

>  <Chemical class>  (427) 
5,7-Dioxygenated Coumarins

>  <Natural source>  (427) 
Murraya omphalocarpa

>  <Molecular Formula>  (427) 
C16H18O5

>  <InChI-Key>  (427) 
NUABNGXDPYIGQM-LBPRGKRZSA-N

>  <Total Molweight>  (427) 
290.314

>  <cLogP>  (427) 
2.4248

>  <cLogS>  (427) 
-3.113

>  <H-Acceptors>  (427) 
5

>  <H-Donors>  (427) 
1

>  <Rotatable Bonds>  (427) 
5

>  <Polar Surface Area>  (427) 
64.99

$$$$
CDB0428
     RDKit          3D

 39 41  0  0  0  0  0  0  0  0999 V2000
   -1.6282   -3.4956   -1.0085 C   0  0  0  0  0  0  0  0  0  0  0  0
   -0.6237   -2.6805   -0.4192 O   0  0  0  0  0  0  0  0  0  0  0  0
   -0.9717   -1.4180   -0.0110 C   0  0  0  0  0  0  0  0  0  0  0  0
   -2.2472   -0.8571   -0.1773 C   0  0  0  0  0  0  0  0  0  0  0  0
   -2.5273    0.4450    0.2600 C   0  0  0  0  0  0  0  0  0  0  0  0
   -3.7480    1.0604    0.1312 O   0  0  0  0  0  0  0  0  0  0  0  0
   -4.8066    0.3228   -0.4659 C   0  0  0  0  0  0  0  0  0  0  0  0
   -1.5137    1.1992    0.8723 C   0  0  0  0  0  0  0  0  0  0  0  0
   -1.7264    2.5633    1.3529 C   0  0  0  0  0  0  0  0  0  0  0  0
   -0.7310    3.2454    1.9253 C   0  0  0  0  0  0  0  0  0  0  0  0
    0.6092    2.6711    2.1003 C   0  0  0  0  0  0  0  0  0  0  0  0
    1.5120    3.3191    2.6159 O   0  0  0  0  0  0  0  0  0  0  0  0
    0.7875    1.3722    1.6504 O   0  0  0  0  0  0  0  0  0  0  0  0
   -0.2468    0.6292    1.0323 C   0  0  0  0  0  0  0  0  0  0  0  0
    0.0524   -0.6738    0.6043 C   0  0  0  0  0  0  0  0  0  0  0  0
    1.4420   -1.2547    0.7773 C   0  0  0  0  0  0  0  0  0  0  0  0
    2.2258   -1.1406   -0.4941 C   0  0  2  0  0  0  0  0  0  0  0  0
    3.6335   -1.3964   -0.3376 O   0  0  0  0  0  0  0  0  0  0  0  0
    3.2803   -0.0801   -0.7868 C   0  0  0  0  0  0  0  0  0  0  0  0
    3.6389    0.9970    0.1883 C   0  0  0  0  0  0  0  0  0  0  0  0
    3.6393    0.1848   -2.2170 C   0  0  0  0  0  0  0  0  0  0  0  0
   -1.9899   -3.0589   -1.9450 H   0  0  0  0  0  0  0  0  0  0  0  0
   -2.4515   -3.6757   -0.3095 H   0  0  0  0  0  0  0  0  0  0  0  0
   -1.1761   -4.4633   -1.2461 H   0  0  0  0  0  0  0  0  0  0  0  0
   -3.0256   -1.4385   -0.6539 H   0  0  0  0  0  0  0  0  0  0  0  0
   -4.5720    0.0671   -1.5043 H   0  0  0  0  0  0  0  0  0  0  0  0
   -5.6952    0.9613   -0.4738 H   0  0  0  0  0  0  0  0  0  0  0  0
   -5.0449   -0.5709    0.1201 H   0  0  0  0  0  0  0  0  0  0  0  0
   -2.7073    3.0121    1.2358 H   0  0  0  0  0  0  0  0  0  0  0  0
   -0.8652    4.2571    2.2872 H   0  0  0  0  0  0  0  0  0  0  0  0
    1.3613   -2.3129    1.0566 H   0  0  0  0  0  0  0  0  0  0  0  0
    1.9544   -0.7890    1.6250 H   0  0  0  0  0  0  0  0  0  0  0  0
    1.7391   -1.6371   -1.3255 H   0  0  0  0  0  0  0  0  0  0  0  0
    3.5477    0.6760    1.2295 H   0  0  0  0  0  0  0  0  0  0  0  0
    2.9976    1.8705    0.0370 H   0  0  0  0  0  0  0  0  0  0  0  0
    4.6772    1.3133    0.0408 H   0  0  0  0  0  0  0  0  0  0  0  0
    3.4021   -0.6668   -2.8636 H   0  0  0  0  0  0  0  0  0  0  0  0
    4.7105    0.3895   -2.3139 H   0  0  0  0  0  0  0  0  0  0  0  0
    3.0876    1.0538   -2.5897 H   0  0  0  0  0  0  0  0  0  0  0  0
  1  2  1  0
  2  3  1  0
  3  4  1  0
  4  5  2  0
  5  6  1  0
  6  7  1  0
  5  8  1  0
  8  9  1  0
  9 10  2  0
 10 11  1  0
 11 12  2  0
 11 13  1  0
 13 14  1  0
 14 15  1  0
 15 16  1  0
 16 17  1  0
 17 18  1  0
 18 19  1  0
 19 20  1  0
 19 21  1  0
 15  3  2  0
 19 17  1  0
 14  8  2  0
  1 22  1  0
  1 23  1  0
  1 24  1  0
  4 25  1  0
  7 26  1  0
  7 27  1  0
  7 28  1  0
  9 29  1  0
 10 30  1  0
 16 31  1  0
 16 32  1  0
 17 33  1  6
 20 34  1  0
 20 35  1  0
 20 36  1  0
 21 37  1  0
 21 38  1  0
 21 39  1  0
M  END
>  <Name>  (428) 
( - )-Sibiricin

>  <PubChem ID>  (428) 
12315526

>  <CDB ID>  (428) 
CDB0428

>  <Smiles>  (428) 
COC1=CC(OC)=C2C=CC(=O)OC2=C1C[C@@H]1OC1(C)C

>  <Chemical class>  (428) 
5,7-Dioxygenated Coumarins

>  <Natural source>  (428) 
Murraya gleinei

>  <Molecular Formula>  (428) 
C16H18O5

>  <InChI-Key>  (428) 
UOEQXGRDVIMHFZ-ZDUSSCGKSA-N

>  <Total Molweight>  (428) 
290.314

>  <cLogP>  (428) 
1.9491

>  <cLogS>  (428) 
-3.241

>  <H-Acceptors>  (428) 
5

>  <H-Donors>  (428) 
0

>  <Rotatable Bonds>  (428) 
4

>  <Polar Surface Area>  (428) 
57.29

$$$$
CDB0429
     RDKit          3D

 49 51  0  0  0  0  0  0  0  0999 V2000
   -1.2694   -3.0813   -0.0022 C   0  0  0  0  0  0  0  0  0  0  0  0
   -1.1921   -2.1132   -1.0503 O   0  0  0  0  0  0  0  0  0  0  0  0
   -0.6733   -0.9296   -0.5910 C   0  0  0  0  0  0  0  0  0  0  0  0
    0.6900   -0.8534   -0.2760 C   0  0  0  0  0  0  0  0  0  0  0  0
    1.2504    0.3504    0.1628 C   0  0  0  0  0  0  0  0  0  0  0  0
    2.5691    0.5144    0.5048 O   0  0  0  0  0  0  0  0  0  0  0  0
    3.4533   -0.5900    0.3086 C   0  0  0  0  0  0  0  0  0  0  0  0
    4.8158   -0.1467    0.7557 C   0  0  0  0  0  0  0  0  0  0  0  0
    5.9819   -0.1954    0.0810 C   0  0  0  0  0  0  0  0  0  0  0  0
    7.2508    0.3200    0.7108 C   0  0  0  0  0  0  0  0  0  0  0  0
    6.1639   -0.7368   -1.3101 C   0  0  0  0  0  0  0  0  0  0  0  0
    0.4308    1.4873    0.2769 C   0  0  0  0  0  0  0  0  0  0  0  0
    0.9357    2.7804    0.7346 C   0  0  0  0  0  0  0  0  0  0  0  0
    0.1198    3.8338    0.8281 C   0  0  0  0  0  0  0  0  0  0  0  0
   -1.3057    3.7532    0.4826 C   0  0  0  0  0  0  0  0  0  0  0  0
   -2.0371    4.7306    0.5854 O   0  0  0  0  0  0  0  0  0  0  0  0
   -1.7676    2.5224    0.0419 O   0  0  0  0  0  0  0  0  0  0  0  0
   -0.9233    1.3901   -0.0670 C   0  0  0  0  0  0  0  0  0  0  0  0
   -1.5017    0.1954   -0.5203 C   0  0  0  0  0  0  0  0  0  0  0  0
   -2.9683    0.1183   -0.8777 C   0  0  0  0  0  0  0  0  0  0  0  0
   -3.8048   -0.1051    0.3457 C   0  0  2  0  0  0  0  0  0  0  0  0
   -4.1700   -1.4693    0.6042 O   0  0  0  0  0  0  0  0  0  0  0  0
   -5.2489   -0.5790    0.2809 C   0  0  0  0  0  0  0  0  0  0  0  0
   -6.1521   -0.2798    1.4371 C   0  0  0  0  0  0  0  0  0  0  0  0
   -5.9169   -0.8808   -1.0240 C   0  0  0  0  0  0  0  0  0  0  0  0
   -1.6393   -2.6482    0.9341 H   0  0  0  0  0  0  0  0  0  0  0  0
   -1.9703   -3.8601   -0.3169 H   0  0  0  0  0  0  0  0  0  0  0  0
   -0.2924   -3.5486    0.1576 H   0  0  0  0  0  0  0  0  0  0  0  0
    1.2876   -1.7505   -0.3939 H   0  0  0  0  0  0  0  0  0  0  0  0
    3.1454   -1.4317    0.9399 H   0  0  0  0  0  0  0  0  0  0  0  0
    3.4407   -0.8888   -0.7424 H   0  0  0  0  0  0  0  0  0  0  0  0
    4.8217    0.2665    1.7643 H   0  0  0  0  0  0  0  0  0  0  0  0
    7.0856    0.7130    1.7195 H   0  0  0  0  0  0  0  0  0  0  0  0
    7.9909   -0.4835    0.7846 H   0  0  0  0  0  0  0  0  0  0  0  0
    7.6730    1.1284    0.1048 H   0  0  0  0  0  0  0  0  0  0  0  0
    6.9194   -1.5299   -1.3079 H   0  0  0  0  0  0  0  0  0  0  0  0
    6.5029    0.0592   -1.9813 H   0  0  0  0  0  0  0  0  0  0  0  0
    5.2538   -1.1629   -1.7363 H   0  0  0  0  0  0  0  0  0  0  0  0
    1.9855    2.8689    0.9951 H   0  0  0  0  0  0  0  0  0  0  0  0
    0.4727    4.8008    1.1644 H   0  0  0  0  0  0  0  0  0  0  0  0
   -3.1258   -0.6640   -1.6284 H   0  0  0  0  0  0  0  0  0  0  0  0
   -3.2795    1.0504   -1.3647 H   0  0  0  0  0  0  0  0  0  0  0  0
   -3.5245    0.5251    1.1814 H   0  0  0  0  0  0  0  0  0  0  0  0
   -6.7384    0.6223    1.2350 H   0  0  0  0  0  0  0  0  0  0  0  0
   -5.5912   -0.1163    2.3635 H   0  0  0  0  0  0  0  0  0  0  0  0
   -6.8454   -1.1097    1.6087 H   0  0  0  0  0  0  0  0  0  0  0  0
   -6.2720    0.0452   -1.4871 H   0  0  0  0  0  0  0  0  0  0  0  0
   -5.2511   -1.3839   -1.7316 H   0  0  0  0  0  0  0  0  0  0  0  0
   -6.7798   -1.5378   -0.8718 H   0  0  0  0  0  0  0  0  0  0  0  0
  1  2  1  0
  2  3  1  0
  3  4  1  0
  4  5  2  0
  5  6  1  0
  6  7  1  0
  7  8  1  0
  8  9  2  3
  9 10  1  0
  9 11  1  0
  5 12  1  0
 12 13  1  0
 13 14  2  0
 14 15  1  0
 15 16  2  0
 15 17  1  0
 17 18  1  0
 18 19  1  0
 19 20  1  0
 20 21  1  0
 21 22  1  0
 22 23  1  0
 23 24  1  0
 23 25  1  0
 19  3  2  0
 23 21  1  0
 18 12  2  0
  1 26  1  0
  1 27  1  0
  1 28  1  0
  4 29  1  0
  7 30  1  0
  7 31  1  0
  8 32  1  0
 10 33  1  0
 10 34  1  0
 10 35  1  0
 11 36  1  0
 11 37  1  0
 11 38  1  0
 13 39  1  0
 14 40  1  0
 20 41  1  0
 20 42  1  0
 21 43  1  1
 24 44  1  0
 24 45  1  0
 24 46  1  0
 25 47  1  0
 25 48  1  0
 25 49  1  0
M  END
>  <Name>  (429) 
Sesebrin

>  <PubChem ID>  (429) 
12772888

>  <CDB ID>  (429) 
CDB0429

>  <Smiles>  (429) 
COC1=CC(OCC=C(C)C)=C2C=CC(=O)OC2=C1C[C@@H]1OC1(C)C

>  <Chemical class>  (429) 
5,7-Dioxygenated Coumarins

>  <Natural source>  (429) 
Seseli sibiricum

>  <Molecular Formula>  (429) 
C20H24O5

>  <InChI-Key>  (429) 
BRUAGUVBIBZDRG-KRWDZBQOSA-N

>  <Total Molweight>  (429) 
344.406

>  <cLogP>  (429) 
3.6184

>  <cLogS>  (429) 
-3.977

>  <H-Acceptors>  (429) 
5

>  <H-Donors>  (429) 
0

>  <Rotatable Bonds>  (429) 
6

>  <Polar Surface Area>  (429) 
57.29

$$$$
CDB0430
     RDKit          3D

 37 38  0  0  0  0  0  0  0  0999 V2000
    4.3958   -1.2789   -1.5231 C   0  0  0  0  0  0  0  0  0  0  0  0
    3.6675   -0.6795   -0.3487 C   0  0  0  0  0  0  0  0  0  0  0  0
    2.3479   -0.4205   -0.4310 C   0  0  0  0  0  0  0  0  0  0  0  0
    1.5063    0.2240    0.6212 C   0  0  0  0  0  0  0  0  0  0  0  0
    1.9373    0.7420    1.6418 O   0  0  0  0  0  0  0  0  0  0  0  0
    0.0564    0.2596    0.3474 C   0  0  0  0  0  0  0  0  0  0  0  0
   -0.7078   -0.9145    0.3963 C   0  0  0  0  0  0  0  0  0  0  0  0
   -2.0886   -0.8375    0.1645 C   0  0  0  0  0  0  0  0  0  0  0  0
   -2.7104    0.3955   -0.0916 C   0  0  0  0  0  0  0  0  0  0  0  0
   -1.9368    1.5707   -0.1333 C   0  0  0  0  0  0  0  0  0  0  0  0
   -0.5603    1.4863    0.0849 C   0  0  0  0  0  0  0  0  0  0  0  0
    0.2470    2.6456    0.0140 O   0  0  0  0  0  0  0  0  0  0  0  0
   -0.2789    3.9011   -0.2482 C   0  0  0  0  0  0  0  0  0  0  0  0
    0.4138    4.9078   -0.3306 O   0  0  0  0  0  0  0  0  0  0  0  0
   -1.7342    3.9711   -0.4439 C   0  0  0  0  0  0  0  0  0  0  0  0
   -2.5137    2.8875   -0.3958 C   0  0  0  0  0  0  0  0  0  0  0  0
   -4.0545    0.5488   -0.3251 O   0  0  0  0  0  0  0  0  0  0  0  0
   -4.8888   -0.5962   -0.2008 C   0  0  0  0  0  0  0  0  0  0  0  0
   -0.0341   -2.0803    0.6492 O   0  0  0  0  0  0  0  0  0  0  0  0
   -0.7993   -3.2075    1.0586 C   0  0  0  0  0  0  0  0  0  0  0  0
    4.5386   -0.4251    0.8513 C   0  0  0  0  0  0  0  0  0  0  0  0
    4.8130   -2.2548   -1.2543 H   0  0  0  0  0  0  0  0  0  0  0  0
    5.2153   -0.6228   -1.8344 H   0  0  0  0  0  0  0  0  0  0  0  0
    3.7413   -1.4249   -2.3891 H   0  0  0  0  0  0  0  0  0  0  0  0
    1.8135   -0.6707   -1.3435 H   0  0  0  0  0  0  0  0  0  0  0  0
   -2.6798   -1.7447    0.1744 H   0  0  0  0  0  0  0  0  0  0  0  0
   -2.1380    4.9577   -0.6355 H   0  0  0  0  0  0  0  0  0  0  0  0
   -3.5850    2.9709   -0.5470 H   0  0  0  0  0  0  0  0  0  0  0  0
   -4.8300   -1.0218    0.8063 H   0  0  0  0  0  0  0  0  0  0  0  0
   -5.9219   -0.2760   -0.3669 H   0  0  0  0  0  0  0  0  0  0  0  0
   -4.6457   -1.3433   -0.9632 H   0  0  0  0  0  0  0  0  0  0  0  0
   -1.3739   -3.6120    0.2194 H   0  0  0  0  0  0  0  0  0  0  0  0
   -1.4516   -2.9636    1.9039 H   0  0  0  0  0  0  0  0  0  0  0  0
   -0.1013   -3.9830    1.3884 H   0  0  0  0  0  0  0  0  0  0  0  0
    5.0878    0.5133    0.7272 H   0  0  0  0  0  0  0  0  0  0  0  0
    3.9840   -0.3905    1.7908 H   0  0  0  0  0  0  0  0  0  0  0  0
    5.2693   -1.2338    0.9663 H   0  0  0  0  0  0  0  0  0  0  0  0
  1  2  1  0
  2  3  2  3
  3  4  1  0
  4  5  2  0
  4  6  1  0
  6  7  1  0
  7  8  2  0
  8  9  1  0
  9 10  2  0
 10 11  1  0
 11 12  1  0
 12 13  1  0
 13 14  2  0
 13 15  1  0
 15 16  2  0
  9 17  1  0
 17 18  1  0
  7 19  1  0
 19 20  1  0
  2 21  1  0
 11  6  2  0
 16 10  1  0
  1 22  1  0
  1 23  1  0
  1 24  1  0
  3 25  1  0
  8 26  1  0
 15 27  1  0
 16 28  1  0
 18 29  1  0
 18 30  1  0
 18 31  1  0
 20 32  1  0
 20 33  1  0
 20 34  1  0
 21 35  1  0
 21 36  1  0
 21 37  1  0
M  END
>  <Name>  (430) 
Glabralactone (Angelicone)

>  <PubChem ID>  (430) 
616303

>  <CDB ID>  (430) 
CDB0430

>  <Smiles>  (430) 
CC(=CC(=O)C1=C(C=C(C2=C1OC(=O)C=C2)OC)OC)C

>  <Chemical class>  (430) 
5,7-Dioxygenated Coumarins

>  <Natural source>  (430) 
Angelica glabra, Angelica ursina

>  <Molecular Formula>  (430) 
C16H16O5

>  <InChI-Key>  (430) 
JEDBBFHVVHKMKS-UHFFFAOYSA-N

>  <Total Molweight>  (430) 
288.298

>  <cLogP>  (430) 
2.4916

>  <cLogS>  (430) 
-3.526

>  <H-Acceptors>  (430) 
5

>  <H-Donors>  (430) 
0

>  <Rotatable Bonds>  (430) 
4

>  <Polar Surface Area>  (430) 
61.83

$$$$
CDB0431
     RDKit          3D

 39 40  0  0  0  0  0  0  0  0999 V2000
   -4.4443   -0.1783   -0.3236 C   0  0  0  0  0  0  0  0  0  0  0  0
   -3.4556    0.7822   -0.9731 C   0  0  0  0  0  0  0  0  0  0  0  0
   -3.5777    2.1903   -0.4031 C   0  0  0  0  0  0  0  0  0  0  0  0
   -2.0132    0.2932   -0.8635 C   0  0  0  0  0  0  0  0  0  0  0  0
   -1.2850    0.3169   -1.8601 O   0  0  0  0  0  0  0  0  0  0  0  0
   -1.5263   -0.1865    0.4979 C   0  0  0  0  0  0  0  0  0  0  0  0
   -0.0228   -0.2824    0.5976 C   0  0  0  0  0  0  0  0  0  0  0  0
    0.7574    0.8718    0.7330 C   0  0  0  0  0  0  0  0  0  0  0  0
    2.1521    0.7951    0.8395 C   0  0  0  0  0  0  0  0  0  0  0  0
    2.8032   -0.4411    0.7593 C   0  0  0  0  0  0  0  0  0  0  0  0
    2.0405   -1.6099    0.5842 C   0  0  0  0  0  0  0  0  0  0  0  0
    0.6458   -1.5102    0.5089 C   0  0  0  0  0  0  0  0  0  0  0  0
   -0.1424   -2.6737    0.3384 O   0  0  0  0  0  0  0  0  0  0  0  0
    0.4145   -3.9392    0.2376 C   0  0  0  0  0  0  0  0  0  0  0  0
   -0.2671   -4.9481    0.1001 O   0  0  0  0  0  0  0  0  0  0  0  0
    1.8793   -4.0198    0.3139 C   0  0  0  0  0  0  0  0  0  0  0  0
    2.6440   -2.9370    0.4780 C   0  0  0  0  0  0  0  0  0  0  0  0
    4.1632   -0.6075    0.8461 O   0  0  0  0  0  0  0  0  0  0  0  0
    4.9637    0.5601    0.9803 C   0  0  0  0  0  0  0  0  0  0  0  0
    0.1104    2.0799    0.8204 O   0  0  0  0  0  0  0  0  0  0  0  0
    0.5167    2.9754   -0.2168 C   0  0  0  0  0  0  0  0  0  0  0  0
   -4.3312   -0.2034    0.7655 H   0  0  0  0  0  0  0  0  0  0  0  0
   -5.4743    0.1214   -0.5440 H   0  0  0  0  0  0  0  0  0  0  0  0
   -4.3004   -1.1978   -0.6972 H   0  0  0  0  0  0  0  0  0  0  0  0
   -3.6903    0.8233   -2.0449 H   0  0  0  0  0  0  0  0  0  0  0  0
   -3.3961    2.2079    0.6766 H   0  0  0  0  0  0  0  0  0  0  0  0
   -4.5790    2.5955   -0.5827 H   0  0  0  0  0  0  0  0  0  0  0  0
   -2.8508    2.8637   -0.8699 H   0  0  0  0  0  0  0  0  0  0  0  0
   -1.8839    0.5002    1.2731 H   0  0  0  0  0  0  0  0  0  0  0  0
   -1.9949   -1.1542    0.7044 H   0  0  0  0  0  0  0  0  0  0  0  0
    2.7060    1.7131    0.9974 H   0  0  0  0  0  0  0  0  0  0  0  0
    2.3049   -5.0120    0.2306 H   0  0  0  0  0  0  0  0  0  0  0  0
    3.7240   -3.0254    0.5311 H   0  0  0  0  0  0  0  0  0  0  0  0
    6.0113    0.2451    1.0071 H   0  0  0  0  0  0  0  0  0  0  0  0
    4.8389    1.2264    0.1203 H   0  0  0  0  0  0  0  0  0  0  0  0
    4.7486    1.0790    1.9201 H   0  0  0  0  0  0  0  0  0  0  0  0
    1.4647    3.4579    0.0407 H   0  0  0  0  0  0  0  0  0  0  0  0
    0.5921    2.4722   -1.1875 H   0  0  0  0  0  0  0  0  0  0  0  0
   -0.2458    3.7558   -0.2998 H   0  0  0  0  0  0  0  0  0  0  0  0
  1  2  1  0
  2  3  1  0
  2  4  1  0
  4  5  2  0
  4  6  1  0
  6  7  1  0
  7  8  2  0
  8  9  1  0
  9 10  2  0
 10 11  1  0
 11 12  2  0
 12 13  1  0
 13 14  1  0
 14 15  2  0
 14 16  1  0
 16 17  2  0
 10 18  1  0
 18 19  1  0
  8 20  1  0
 20 21  1  0
 12  7  1  0
 17 11  1  0
  1 22  1  0
  1 23  1  0
  1 24  1  0
  2 25  1  0
  3 26  1  0
  3 27  1  0
  3 28  1  0
  6 29  1  0
  6 30  1  0
  9 31  1  0
 16 32  1  0
 17 33  1  0
 19 34  1  0
 19 35  1  0
 19 36  1  0
 21 37  1  0
 21 38  1  0
 21 39  1  0
M  END
>  <Name>  (431) 
Isosibiricin

>  <PubChem ID>  (431) 
5316871

>  <CDB ID>  (431) 
CDB0431

>  <Smiles>  (431) 
CC(C)C(=O)CC1=C(C=C(C2=C1OC(=O)C=C2)OC)OC

>  <Chemical class>  (431) 
5,7-Dioxygenated Coumarins

>  <Natural source>  (431) 
Severinia buxifolia

>  <Molecular Formula>  (431) 
C16H18O5

>  <InChI-Key>  (431) 
ISXFUPHLGNGMIC-UHFFFAOYSA-N

>  <Total Molweight>  (431) 
290.314

>  <cLogP>  (431) 
2.191

>  <cLogS>  (431) 
-3.261

>  <H-Acceptors>  (431) 
5

>  <H-Donors>  (431) 
0

>  <Rotatable Bonds>  (431) 
5

>  <Polar Surface Area>  (431) 
61.83

$$$$
CDB0432
     RDKit          3D

 42 43  0  0  0  0  0  0  0  0999 V2000
    0.9695    3.5719   -1.2099 C   0  0  0  0  0  0  0  0  0  0  0  0
    0.2470    2.4104   -0.8157 O   0  0  0  0  0  0  0  0  0  0  0  0
    0.9570    1.3951   -0.2266 C   0  0  0  0  0  0  0  0  0  0  0  0
    2.3522    1.2659   -0.2954 C   0  0  0  0  0  0  0  0  0  0  0  0
    3.0055    0.1684    0.2841 C   0  0  0  0  0  0  0  0  0  0  0  0
    4.3643   -0.0262    0.2591 O   0  0  0  0  0  0  0  0  0  0  0  0
    5.1720    0.9875   -0.3255 C   0  0  0  0  0  0  0  0  0  0  0  0
    2.2483   -0.8259    0.9242 C   0  0  0  0  0  0  0  0  0  0  0  0
    2.8497   -2.0096    1.5349 C   0  0  0  0  0  0  0  0  0  0  0  0
    2.0839   -2.9388    2.1132 C   0  0  0  0  0  0  0  0  0  0  0  0
    0.6201   -2.8253    2.1645 C   0  0  0  0  0  0  0  0  0  0  0  0
   -0.0640   -3.6979    2.6848 O   0  0  0  0  0  0  0  0  0  0  0  0
    0.0682   -1.6888    1.5933 O   0  0  0  0  0  0  0  0  0  0  0  0
    0.8590   -0.6863    0.9800 C   0  0  0  0  0  0  0  0  0  0  0  0
    0.1900    0.4193    0.4304 C   0  0  0  0  0  0  0  0  0  0  0  0
   -1.3246    0.5280    0.5280 C   0  0  0  0  0  0  0  0  0  0  0  0
   -2.0205   -0.1179   -0.6878 C   0  0  2  0  0  0  0  0  0  0  0  0
   -2.0192    0.8333   -1.7756 O   0  0  0  0  0  0  0  0  0  0  0  0
   -3.5035   -0.5121   -0.4308 C   0  0  0  0  0  0  0  0  0  0  0  0
   -4.1403   -1.0965   -1.7009 C   0  0  0  0  0  0  0  0  0  0  0  0
   -3.6687   -1.5115    0.7159 C   0  0  0  0  0  0  0  0  0  0  0  0
   -4.2394    0.6736   -0.0960 O   0  0  0  0  0  0  0  0  0  0  0  0
    1.5650    3.9729   -0.3828 H   0  0  0  0  0  0  0  0  0  0  0  0
    0.2408    4.3358   -1.4976 H   0  0  0  0  0  0  0  0  0  0  0  0
    1.5944    3.3624   -2.0838 H   0  0  0  0  0  0  0  0  0  0  0  0
    2.9297    2.0158   -0.8207 H   0  0  0  0  0  0  0  0  0  0  0  0
    4.9636    1.0873   -1.3957 H   0  0  0  0  0  0  0  0  0  0  0  0
    6.2179    0.6846   -0.2177 H   0  0  0  0  0  0  0  0  0  0  0  0
    5.0471    1.9428    0.1950 H   0  0  0  0  0  0  0  0  0  0  0  0
    3.9288   -2.1205    1.5095 H   0  0  0  0  0  0  0  0  0  0  0  0
    2.5073   -3.8245    2.5705 H   0  0  0  0  0  0  0  0  0  0  0  0
   -1.6096    1.5839    0.6194 H   0  0  0  0  0  0  0  0  0  0  0  0
   -1.6339    0.0660    1.4695 H   0  0  0  0  0  0  0  0  0  0  0  0
   -1.4680   -1.0026   -1.0273 H   0  0  0  0  0  0  0  0  0  0  0  0
   -1.1525    1.2837   -1.7654 H   0  0  0  0  0  0  0  0  0  0  0  0
   -4.1370   -0.3731   -2.5237 H   0  0  0  0  0  0  0  0  0  0  0  0
   -5.1933   -1.3476   -1.5275 H   0  0  0  0  0  0  0  0  0  0  0  0
   -3.6186   -2.0011   -2.0298 H   0  0  0  0  0  0  0  0  0  0  0  0
   -3.0434   -2.3979    0.5685 H   0  0  0  0  0  0  0  0  0  0  0  0
   -4.7122   -1.8384    0.7972 H   0  0  0  0  0  0  0  0  0  0  0  0
   -3.4294   -1.0654    1.6860 H   0  0  0  0  0  0  0  0  0  0  0  0
   -4.0033    1.3195   -0.7917 H   0  0  0  0  0  0  0  0  0  0  0  0
  1  2  1  0
  2  3  1  0
  3  4  1  0
  4  5  2  0
  5  6  1  0
  6  7  1  0
  5  8  1  0
  8  9  1  0
  9 10  2  0
 10 11  1  0
 11 12  2  0
 11 13  1  0
 13 14  1  0
 14 15  1  0
 15 16  1  0
 16 17  1  0
 17 18  1  0
 17 19  1  0
 19 20  1  0
 19 21  1  0
 19 22  1  0
 15  3  2  0
 14  8  2  0
  1 23  1  0
  1 24  1  0
  1 25  1  0
  4 26  1  0
  7 27  1  0
  7 28  1  0
  7 29  1  0
  9 30  1  0
 10 31  1  0
 16 32  1  0
 16 33  1  0
 17 34  1  6
 18 35  1  0
 20 36  1  0
 20 37  1  0
 20 38  1  0
 21 39  1  0
 21 40  1  0
 21 41  1  0
 22 42  1  0
M  END
>  <Name>  (432) 
Mexoticin

>  <PubChem ID>  (432) 
4465807

>  <CDB ID>  (432) 
CDB0432

>  <Smiles>  (432) 
COC1=CC(OC)=C2C=CC(=O)OC2=C1C[C@H](O)C(C)(C)O

>  <Chemical class>  (432) 
5,7-Dioxygenated Coumarins

>  <Natural source>  (432) 
Severinia buxifolia

>  <Molecular Formula>  (432) 
C16H20O6

>  <InChI-Key>  (432) 
JVCJUTNJQMKKCK-ZDUSSCGKSA-N

>  <Total Molweight>  (432) 
308.329

>  <cLogP>  (432) 
1.3627

>  <cLogS>  (432) 
-2.76

>  <H-Acceptors>  (432) 
6

>  <H-Donors>  (432) 
2

>  <Rotatable Bonds>  (432) 
5

>  <Polar Surface Area>  (432) 
85.22

$$$$
CDB0433
     RDKit          3D

 42 43  0  0  0  0  0  0  0  0999 V2000
    0.9695    3.5719   -1.2099 C   0  0  0  0  0  0  0  0  0  0  0  0
    0.2470    2.4104   -0.8157 O   0  0  0  0  0  0  0  0  0  0  0  0
    0.9570    1.3951   -0.2266 C   0  0  0  0  0  0  0  0  0  0  0  0
    2.3522    1.2659   -0.2954 C   0  0  0  0  0  0  0  0  0  0  0  0
    3.0055    0.1684    0.2841 C   0  0  0  0  0  0  0  0  0  0  0  0
    4.3643   -0.0262    0.2591 O   0  0  0  0  0  0  0  0  0  0  0  0
    5.1720    0.9875   -0.3255 C   0  0  0  0  0  0  0  0  0  0  0  0
    2.2483   -0.8259    0.9242 C   0  0  0  0  0  0  0  0  0  0  0  0
    2.8497   -2.0096    1.5349 C   0  0  0  0  0  0  0  0  0  0  0  0
    2.0839   -2.9388    2.1132 C   0  0  0  0  0  0  0  0  0  0  0  0
    0.6201   -2.8253    2.1645 C   0  0  0  0  0  0  0  0  0  0  0  0
   -0.0640   -3.6979    2.6848 O   0  0  0  0  0  0  0  0  0  0  0  0
    0.0682   -1.6888    1.5933 O   0  0  0  0  0  0  0  0  0  0  0  0
    0.8590   -0.6863    0.9800 C   0  0  0  0  0  0  0  0  0  0  0  0
    0.1900    0.4193    0.4304 C   0  0  0  0  0  0  0  0  0  0  0  0
   -1.3246    0.5280    0.5280 C   0  0  0  0  0  0  0  0  0  0  0  0
   -2.0205   -0.1179   -0.6878 C   0  0  2  0  0  0  0  0  0  0  0  0
   -2.0192    0.8333   -1.7756 O   0  0  0  0  0  0  0  0  0  0  0  0
   -3.5035   -0.5121   -0.4308 C   0  0  0  0  0  0  0  0  0  0  0  0
   -4.1403   -1.0965   -1.7009 C   0  0  0  0  0  0  0  0  0  0  0  0
   -3.6687   -1.5115    0.7159 C   0  0  0  0  0  0  0  0  0  0  0  0
   -4.2394    0.6736   -0.0960 O   0  0  0  0  0  0  0  0  0  0  0  0
    1.5650    3.9729   -0.3828 H   0  0  0  0  0  0  0  0  0  0  0  0
    0.2408    4.3358   -1.4976 H   0  0  0  0  0  0  0  0  0  0  0  0
    1.5944    3.3624   -2.0838 H   0  0  0  0  0  0  0  0  0  0  0  0
    2.9297    2.0158   -0.8207 H   0  0  0  0  0  0  0  0  0  0  0  0
    4.9636    1.0873   -1.3957 H   0  0  0  0  0  0  0  0  0  0  0  0
    6.2179    0.6846   -0.2177 H   0  0  0  0  0  0  0  0  0  0  0  0
    5.0471    1.9428    0.1950 H   0  0  0  0  0  0  0  0  0  0  0  0
    3.9288   -2.1205    1.5095 H   0  0  0  0  0  0  0  0  0  0  0  0
    2.5073   -3.8245    2.5705 H   0  0  0  0  0  0  0  0  0  0  0  0
   -1.6096    1.5839    0.6194 H   0  0  0  0  0  0  0  0  0  0  0  0
   -1.6339    0.0660    1.4695 H   0  0  0  0  0  0  0  0  0  0  0  0
   -1.4680   -1.0026   -1.0273 H   0  0  0  0  0  0  0  0  0  0  0  0
   -1.1525    1.2837   -1.7654 H   0  0  0  0  0  0  0  0  0  0  0  0
   -4.1370   -0.3731   -2.5237 H   0  0  0  0  0  0  0  0  0  0  0  0
   -5.1933   -1.3476   -1.5275 H   0  0  0  0  0  0  0  0  0  0  0  0
   -3.6186   -2.0011   -2.0298 H   0  0  0  0  0  0  0  0  0  0  0  0
   -3.0434   -2.3979    0.5685 H   0  0  0  0  0  0  0  0  0  0  0  0
   -4.7122   -1.8384    0.7972 H   0  0  0  0  0  0  0  0  0  0  0  0
   -3.4294   -1.0654    1.6860 H   0  0  0  0  0  0  0  0  0  0  0  0
   -4.0033    1.3195   -0.7917 H   0  0  0  0  0  0  0  0  0  0  0  0
  1  2  1  0
  2  3  1  0
  3  4  1  0
  4  5  2  0
  5  6  1  0
  6  7  1  0
  5  8  1  0
  8  9  1  0
  9 10  2  0
 10 11  1  0
 11 12  2  0
 11 13  1  0
 13 14  1  0
 14 15  1  0
 15 16  1  0
 16 17  1  0
 17 18  1  0
 17 19  1  0
 19 20  1  0
 19 21  1  0
 19 22  1  0
 15  3  2  0
 14  8  2  0
  1 23  1  0
  1 24  1  0
  1 25  1  0
  4 26  1  0
  7 27  1  0
  7 28  1  0
  7 29  1  0
  9 30  1  0
 10 31  1  0
 16 32  1  0
 16 33  1  0
 17 34  1  6
 18 35  1  0
 20 36  1  0
 20 37  1  0
 20 38  1  0
 21 39  1  0
 21 40  1  0
 21 41  1  0
 22 42  1  0
M  END
>  <Name>  (433) 
(-)-Mexoticin (Isomexoticin)

>  <PubChem ID>  (433) 
821399

>  <CDB ID>  (433) 
CDB0433

>  <Smiles>  (433) 
COC1=CC(OC)=C2C=CC(=O)OC2=C1C[C@H](O)C(C)(C)O

>  <Chemical class>  (433) 
5,7-Dioxygenated Coumarins

>  <Natural source>  (433) 
Murraya paniculata

>  <Molecular Formula>  (433) 
C16H20O6

>  <InChI-Key>  (433) 
JVCJUTNJQMKKCK-ZDUSSCGKSA-N

>  <Total Molweight>  (433) 
308.329

>  <cLogP>  (433) 
1.3627

>  <cLogS>  (433) 
-2.76

>  <H-Acceptors>  (433) 
6

>  <H-Donors>  (433) 
2

>  <Rotatable Bonds>  (433) 
5

>  <Polar Surface Area>  (433) 
85.22

$$$$
CDB0434
     RDKit          3D

 45 46  0  0  0  0  0  0  0  0999 V2000
   -3.7645    1.8019    0.3024 C   0  0  0  0  0  0  0  0  0  0  0  0
   -3.4556    0.3755   -0.1586 C   0  0  0  0  0  0  0  0  0  0  0  0
   -1.9440    0.1367   -0.5236 C   0  0  0  0  0  0  0  0  0  0  0  0
   -1.5778    0.7912   -1.8620 C   0  0  0  0  0  0  0  0  0  0  0  0
   -1.0194    0.6346    0.6300 C   0  0  0  0  0  0  0  0  0  0  0  0
    0.4532    0.2746    0.5099 C   0  0  0  0  0  0  0  0  0  0  0  0
    0.9339   -0.9769    0.9369 C   0  0  0  0  0  0  0  0  0  0  0  0
    2.2958   -1.2885    0.8076 C   0  0  0  0  0  0  0  0  0  0  0  0
    3.1994   -0.3680    0.2573 C   0  0  0  0  0  0  0  0  0  0  0  0
    2.7339    0.8869   -0.1664 C   0  0  0  0  0  0  0  0  0  0  0  0
    1.3750    1.1850   -0.0323 C   0  0  0  0  0  0  0  0  0  0  0  0
    0.8824    2.4459   -0.4504 O   0  0  0  0  0  0  0  0  0  0  0  0
    1.6996    3.4198   -1.0030 C   0  0  0  0  0  0  0  0  0  0  0  0
    1.2738    4.5115   -1.3598 O   0  0  0  0  0  0  0  0  0  0  0  0
    3.1221    3.0801   -1.1392 C   0  0  0  0  0  0  0  0  0  0  0  0
    3.6115    1.9001   -0.7494 C   0  0  0  0  0  0  0  0  0  0  0  0
    4.5435   -0.6008    0.0997 O   0  0  0  0  0  0  0  0  0  0  0  0
    5.0432   -1.8848    0.4507 C   0  0  0  0  0  0  0  0  0  0  0  0
   -0.0119   -1.8276    1.4575 O   0  0  0  0  0  0  0  0  0  0  0  0
    0.4314   -3.0868    1.9518 C   0  0  0  0  0  0  0  0  0  0  0  0
   -1.7626   -1.2852   -0.7029 O   0  0  0  0  0  0  0  0  0  0  0  0
   -4.3641    0.1417   -1.2525 O   0  0  0  0  0  0  0  0  0  0  0  0
   -4.5122   -1.2241   -1.6143 C   0  0  0  0  0  0  0  0  0  0  0  0
   -3.4773    2.5375   -0.4557 H   0  0  0  0  0  0  0  0  0  0  0  0
   -3.2661    2.0480    1.2437 H   0  0  0  0  0  0  0  0  0  0  0  0
   -4.8429    1.9238    0.4584 H   0  0  0  0  0  0  0  0  0  0  0  0
   -3.7362   -0.3047    0.6568 H   0  0  0  0  0  0  0  0  0  0  0  0
   -2.2353    0.4500   -2.6686 H   0  0  0  0  0  0  0  0  0  0  0  0
   -0.5667    0.5101   -2.1759 H   0  0  0  0  0  0  0  0  0  0  0  0
   -1.6349    1.8825   -1.8116 H   0  0  0  0  0  0  0  0  0  0  0  0
   -1.1074    1.7217    0.7410 H   0  0  0  0  0  0  0  0  0  0  0  0
   -1.3845    0.2289    1.5837 H   0  0  0  0  0  0  0  0  0  0  0  0
    2.6549   -2.2553    1.1351 H   0  0  0  0  0  0  0  0  0  0  0  0
    3.7530    3.8449   -1.5746 H   0  0  0  0  0  0  0  0  0  0  0  0
    4.6671    1.6756   -0.8618 H   0  0  0  0  0  0  0  0  0  0  0  0
    4.5687   -2.6708   -0.1459 H   0  0  0  0  0  0  0  0  0  0  0  0
    4.9253   -2.0730    1.5228 H   0  0  0  0  0  0  0  0  0  0  0  0
    6.1142   -1.8987    0.2270 H   0  0  0  0  0  0  0  0  0  0  0  0
   -0.4413   -3.6136    2.3498 H   0  0  0  0  0  0  0  0  0  0  0  0
    0.8505   -3.6992    1.1470 H   0  0  0  0  0  0  0  0  0  0  0  0
    1.1462   -2.9604    2.7714 H   0  0  0  0  0  0  0  0  0  0  0  0
   -1.4587   -1.6572    0.1462 H   0  0  0  0  0  0  0  0  0  0  0  0
   -5.4129   -1.3124   -2.2286 H   0  0  0  0  0  0  0  0  0  0  0  0
   -4.6343   -1.8614   -0.7335 H   0  0  0  0  0  0  0  0  0  0  0  0
   -3.6679   -1.5587   -2.2210 H   0  0  0  0  0  0  0  0  0  0  0  0
  1  2  1  0
  2  3  1  0
  3  4  1  0
  3  5  1  0
  5  6  1  0
  6  7  2  0
  7  8  1  0
  8  9  2  0
  9 10  1  0
 10 11  2  0
 11 12  1  0
 12 13  1  0
 13 14  2  0
 13 15  1  0
 15 16  2  0
  9 17  1  0
 17 18  1  0
  7 19  1  0
 19 20  1  0
  3 21  1  0
  2 22  1  0
 22 23  1  0
 11  6  1  0
 16 10  1  0
  1 24  1  0
  1 25  1  0
  1 26  1  0
  2 27  1  0
  4 28  1  0
  4 29  1  0
  4 30  1  0
  5 31  1  0
  5 32  1  0
  8 33  1  0
 15 34  1  0
 16 35  1  0
 18 36  1  0
 18 37  1  0
 18 38  1  0
 20 39  1  0
 20 40  1  0
 20 41  1  0
 21 42  1  0
 23 43  1  0
 23 44  1  0
 23 45  1  0
M  END
>  <Name>  (434) 
Omphalocarpin

>  <PubChem ID>  (434) 
101988840

>  <CDB ID>  (434) 
CDB0434

>  <Smiles>  (434) 
CC(C(C)(CC1=C(C=C(C2=C1OC(=O)C=C2)OC)OC)O)OC

>  <Chemical class>  (434) 
5,7-Dioxygenated Coumarins

>  <Natural source>  (434) 
Murraya paniculata var. omphalocarpa

>  <Molecular Formula>  (434) 
C17H22O6

>  <InChI-Key>  (434) 
GHXPTZOTUKKASE-UHFFFAOYSA-N

>  <Total Molweight>  (434) 
322.356

>  <cLogP>  (434) 
1.7906

>  <cLogS>  (434) 
-2.888

>  <H-Acceptors>  (434) 
6

>  <H-Donors>  (434) 
1

>  <Rotatable Bonds>  (434) 
6

>  <Polar Surface Area>  (434) 
74.22

$$$$
CDB0435
     RDKit          3D

 52 53  0  0  0  0  0  0  0  0999 V2000
   -0.6149   -3.2988   -0.4100 C   0  0  0  0  0  0  0  0  0  0  0  0
   -1.2915   -2.2061    0.1984 O   0  0  0  0  0  0  0  0  0  0  0  0
   -0.5493   -1.1012    0.5345 C   0  0  0  0  0  0  0  0  0  0  0  0
    0.8467   -1.0183    0.4254 C   0  0  0  0  0  0  0  0  0  0  0  0
    1.5310    0.1523    0.7848 C   0  0  0  0  0  0  0  0  0  0  0  0
    2.8933    0.3076    0.7099 O   0  0  0  0  0  0  0  0  0  0  0  0
    3.6497   -0.7023    0.0421 C   0  0  0  0  0  0  0  0  0  0  0  0
    5.0802   -0.2485    0.0349 C   0  0  0  0  0  0  0  0  0  0  0  0
    5.9202   -0.1230   -1.0121 C   0  0  0  0  0  0  0  0  0  0  0  0
    7.3300    0.3690   -0.8049 C   0  0  0  0  0  0  0  0  0  0  0  0
    5.5839   -0.4341   -2.4443 C   0  0  0  0  0  0  0  0  0  0  0  0
    0.8090    1.2532    1.2734 C   0  0  0  0  0  0  0  0  0  0  0  0
    1.4490    2.5084    1.6621 C   0  0  0  0  0  0  0  0  0  0  0  0
    0.7184    3.5302    2.1160 C   0  0  0  0  0  0  0  0  0  0  0  0
   -0.7419    3.4467    2.2545 C   0  0  0  0  0  0  0  0  0  0  0  0
   -1.3887    4.3912    2.6919 O   0  0  0  0  0  0  0  0  0  0  0  0
   -1.3309    2.2499    1.8802 O   0  0  0  0  0  0  0  0  0  0  0  0
   -0.5803    1.1551    1.3858 C   0  0  0  0  0  0  0  0  0  0  0  0
   -1.2818   -0.0060    1.0256 C   0  0  0  0  0  0  0  0  0  0  0  0
   -2.7954   -0.0680    1.1269 C   0  0  0  0  0  0  0  0  0  0  0  0
   -3.4816    0.1628   -0.2343 C   0  0  2  0  0  0  0  0  0  0  0  0
   -3.2551    1.5297   -0.6236 O   0  0  0  0  0  0  0  0  0  0  0  0
   -5.0178   -0.0941   -0.2170 C   0  0  0  0  0  0  0  0  0  0  0  0
   -5.6212    0.1859   -1.6008 C   0  0  0  0  0  0  0  0  0  0  0  0
   -5.3819   -1.5193    0.2092 C   0  0  0  0  0  0  0  0  0  0  0  0
   -5.6349    0.8390    0.6855 O   0  0  0  0  0  0  0  0  0  0  0  0
   -1.3640   -4.0552   -0.6635 H   0  0  0  0  0  0  0  0  0  0  0  0
   -0.1233   -2.9931   -1.3395 H   0  0  0  0  0  0  0  0  0  0  0  0
    0.0968   -3.7558    0.2850 H   0  0  0  0  0  0  0  0  0  0  0  0
    1.4032   -1.8733    0.0648 H   0  0  0  0  0  0  0  0  0  0  0  0
    3.2586   -0.8514   -0.9674 H   0  0  0  0  0  0  0  0  0  0  0  0
    3.5945   -1.6412    0.6051 H   0  0  0  0  0  0  0  0  0  0  0  0
    5.4521    0.0085    1.0267 H   0  0  0  0  0  0  0  0  0  0  0  0
    7.4999    1.2847   -1.3806 H   0  0  0  0  0  0  0  0  0  0  0  0
    7.5432    0.5931    0.2456 H   0  0  0  0  0  0  0  0  0  0  0  0
    8.0482   -0.3887   -1.1351 H   0  0  0  0  0  0  0  0  0  0  0  0
    5.6586    0.4732   -3.0530 H   0  0  0  0  0  0  0  0  0  0  0  0
    4.5799   -0.8403   -2.5798 H   0  0  0  0  0  0  0  0  0  0  0  0
    6.2866   -1.1741   -2.8422 H   0  0  0  0  0  0  0  0  0  0  0  0
    2.5263    2.5974    1.5686 H   0  0  0  0  0  0  0  0  0  0  0  0
    1.1695    4.4708    2.4060 H   0  0  0  0  0  0  0  0  0  0  0  0
   -3.1493    0.6693    1.8569 H   0  0  0  0  0  0  0  0  0  0  0  0
   -3.0615   -1.0437    1.5469 H   0  0  0  0  0  0  0  0  0  0  0  0
   -3.0210   -0.4677   -1.0036 H   0  0  0  0  0  0  0  0  0  0  0  0
   -3.9079    2.0608   -0.1253 H   0  0  0  0  0  0  0  0  0  0  0  0
   -6.7064    0.0298   -1.5905 H   0  0  0  0  0  0  0  0  0  0  0  0
   -5.4711    1.2286   -1.9018 H   0  0  0  0  0  0  0  0  0  0  0  0
   -5.1865   -0.4646   -2.3668 H   0  0  0  0  0  0  0  0  0  0  0  0
   -5.1280   -1.7095    1.2567 H   0  0  0  0  0  0  0  0  0  0  0  0
   -6.4640   -1.6801    0.1361 H   0  0  0  0  0  0  0  0  0  0  0  0
   -4.8803   -2.2646   -0.4163 H   0  0  0  0  0  0  0  0  0  0  0  0
   -5.4988    0.5263    1.5967 H   0  0  0  0  0  0  0  0  0  0  0  0
  1  2  1  0
  2  3  1  0
  3  4  1  0
  4  5  2  0
  5  6  1  0
  6  7  1  0
  7  8  1  0
  8  9  2  3
  9 10  1  0
  9 11  1  0
  5 12  1  0
 12 13  1  0
 13 14  2  0
 14 15  1  0
 15 16  2  0
 15 17  1  0
 17 18  1  0
 18 19  1  0
 19 20  1  0
 20 21  1  0
 21 22  1  0
 21 23  1  0
 23 24  1  0
 23 25  1  0
 23 26  1  0
 19  3  2  0
 18 12  2  0
  1 27  1  0
  1 28  1  0
  1 29  1  0
  4 30  1  0
  7 31  1  0
  7 32  1  0
  8 33  1  0
 10 34  1  0
 10 35  1  0
 10 36  1  0
 11 37  1  0
 11 38  1  0
 11 39  1  0
 13 40  1  0
 14 41  1  0
 20 42  1  0
 20 43  1  0
 21 44  1  6
 22 45  1  0
 24 46  1  0
 24 47  1  0
 24 48  1  0
 25 49  1  0
 25 50  1  0
 25 51  1  0
 26 52  1  0
M  END
>  <Name>  (435) 
Sesebrinol

>  <PubChem ID>  (435) 
12772889

>  <CDB ID>  (435) 
CDB0435

>  <Smiles>  (435) 
COC1=CC(OCC=C(C)C)=C2C=CC(=O)OC2=C1C[C@H](O)C(C)(C)O

>  <Chemical class>  (435) 
5,7-Dioxygenated Coumarins

>  <Natural source>  (435) 
Seseli sibiricum

>  <Molecular Formula>  (435) 
C20H26O6

>  <InChI-Key>  (435) 
UNAHBFVKPGDHSP-KRWDZBQOSA-N

>  <Total Molweight>  (435) 
362.42

>  <cLogP>  (435) 
3.032

>  <cLogS>  (435) 
-3.496

>  <H-Acceptors>  (435) 
6

>  <H-Donors>  (435) 
2

>  <Rotatable Bonds>  (435) 
7

>  <Polar Surface Area>  (435) 
85.22

$$$$
CDB0436
     RDKit          3D

 48 51  0  0  0  0  0  0  0  0999 V2000
    0.5618   -3.9232   -3.2481 C   0  0  0  0  0  0  0  0  0  0  0  0
    0.8445   -2.6134   -2.5736 C   0  0  0  0  0  0  0  0  0  0  0  0
    0.1345   -2.2355   -1.4287 C   0  0  0  0  0  0  0  0  0  0  0  0
    0.3555   -0.9980   -0.7844 C   0  0  0  0  0  0  0  0  0  0  0  0
    1.3302   -0.1255   -1.3243 C   0  0  0  0  0  0  0  0  0  0  0  0
    2.0058   -0.4849   -2.4965 C   0  0  0  0  0  0  0  0  0  0  0  0
    1.7678   -1.7201   -3.1153 C   0  0  0  0  0  0  0  0  0  0  0  0
    2.9678    0.4372   -3.1271 C   0  0  0  0  0  0  0  0  0  0  0  0
    3.6568    0.1009   -4.0816 O   0  0  0  0  0  0  0  0  0  0  0  0
    3.0508    1.8045   -2.5999 C   0  0  0  0  0  0  0  0  0  0  0  0
    2.4366    2.1745   -1.4747 C   0  0  0  0  0  0  0  0  0  0  0  0
    1.6922    1.1591   -0.6643 C   0  0  0  0  0  0  0  0  0  0  0  0
    1.4287    1.3701    0.5142 O   0  0  0  0  0  0  0  0  0  0  0  0
    2.5873    3.4843   -1.0410 O   0  0  0  0  0  0  0  0  0  0  0  0
    1.3944    4.0610   -0.5127 C   0  0  0  0  0  0  0  0  0  0  0  0
   -0.4874   -0.6707    0.3848 C   0  0  0  0  0  0  0  0  0  0  0  0
   -0.3690   -1.3572    1.6030 C   0  0  0  0  0  0  0  0  0  0  0  0
   -1.2119   -1.0838    2.6892 C   0  0  0  0  0  0  0  0  0  0  0  0
   -2.1753   -0.0747    2.6025 C   0  0  0  0  0  0  0  0  0  0  0  0
   -2.3006    0.6525    1.4056 C   0  0  0  0  0  0  0  0  0  0  0  0
   -1.4660    0.3383    0.3244 C   0  0  0  0  0  0  0  0  0  0  0  0
   -1.5834    1.0583   -0.8936 O   0  0  0  0  0  0  0  0  0  0  0  0
   -2.4554    2.1232   -1.0443 C   0  0  0  0  0  0  0  0  0  0  0  0
   -2.4982    2.7935   -2.0689 O   0  0  0  0  0  0  0  0  0  0  0  0
   -3.3381    2.4156    0.0921 C   0  0  0  0  0  0  0  0  0  0  0  0
   -3.2734    1.7305    1.2368 C   0  0  0  0  0  0  0  0  0  0  0  0
   -3.0331    0.2666    3.6179 O   0  0  0  0  0  0  0  0  0  0  0  0
   -2.8955   -0.4215    4.8551 C   0  0  0  0  0  0  0  0  0  0  0  0
    0.5443   -2.3756    1.7428 O   0  0  0  0  0  0  0  0  0  0  0  0
    1.7431   -1.8774    2.3421 C   0  0  0  0  0  0  0  0  0  0  0  0
   -0.2478   -3.8030   -3.9744 H   0  0  0  0  0  0  0  0  0  0  0  0
    1.4512   -4.2954   -3.7674 H   0  0  0  0  0  0  0  0  0  0  0  0
    0.2717   -4.6841   -2.5159 H   0  0  0  0  0  0  0  0  0  0  0  0
   -0.6152   -2.9170   -1.0235 H   0  0  0  0  0  0  0  0  0  0  0  0
    2.3042   -1.9809   -4.0275 H   0  0  0  0  0  0  0  0  0  0  0  0
    3.6474    2.5044   -3.1734 H   0  0  0  0  0  0  0  0  0  0  0  0
    1.4912    5.1486   -0.5849 H   0  0  0  0  0  0  0  0  0  0  0  0
    0.5076    3.7635   -1.0831 H   0  0  0  0  0  0  0  0  0  0  0  0
    1.2799    3.8103    0.5454 H   0  0  0  0  0  0  0  0  0  0  0  0
   -1.0868   -1.6801    3.5866 H   0  0  0  0  0  0  0  0  0  0  0  0
   -4.0442    3.2242   -0.0499 H   0  0  0  0  0  0  0  0  0  0  0  0
   -3.9358    1.9696    2.0624 H   0  0  0  0  0  0  0  0  0  0  0  0
   -1.9030   -0.2607    5.2889 H   0  0  0  0  0  0  0  0  0  0  0  0
   -3.1104   -1.4886    4.7380 H   0  0  0  0  0  0  0  0  0  0  0  0
   -3.6328   -0.0085    5.5502 H   0  0  0  0  0  0  0  0  0  0  0  0
    2.2030   -1.0963    1.7281 H   0  0  0  0  0  0  0  0  0  0  0  0
    2.4498   -2.7095    2.4138 H   0  0  0  0  0  0  0  0  0  0  0  0
    1.5553   -1.5050    3.3550 H   0  0  0  0  0  0  0  0  0  0  0  0
  1  2  1  0
  2  3  2  0
  3  4  1  0
  4  5  2  0
  5  6  1  0
  6  7  2  0
  6  8  1  0
  8  9  2  0
  8 10  1  0
 10 11  2  0
 11 12  1  0
 12 13  2  0
 11 14  1  0
 14 15  1  0
  4 16  1  0
 16 17  2  0
 17 18  1  0
 18 19  2  0
 19 20  1  0
 20 21  2  0
 21 22  1  0
 22 23  1  0
 23 24  2  0
 23 25  1  0
 25 26  2  0
 19 27  1  0
 27 28  1  0
 17 29  1  0
 29 30  1  0
  7  2  1  0
 12  5  1  0
 21 16  1  0
 26 20  1  0
  1 31  1  0
  1 32  1  0
  1 33  1  0
  3 34  1  0
  7 35  1  0
 10 36  1  0
 15 37  1  0
 15 38  1  0
 15 39  1  0
 18 40  1  0
 25 41  1  0
 26 42  1  0
 28 43  1  0
 28 44  1  0
 28 45  1  0
 30 46  1  0
 30 47  1  0
 30 48  1  0
M  END
>  <Name>  (436) 
Toddacoumaquinone

>  <PubChem ID>  (436) 
10046907

>  <CDB ID>  (436) 
CDB0436

>  <Smiles>  (436) 
CC1=CC(=C2C(=C1)C(=O)C=C(C2=O)OC)C3=C(C=C(C4=C3OC(=O)C=C4)OC)OC

>  <Chemical class>  (436) 
5,7-Dioxygenated Coumarins

>  <Natural source>  (436) 
Toddalia asiatica

>  <Molecular Formula>  (436) 
C23H18O7

>  <InChI-Key>  (436) 
SQTLGMZYHSFVGI-UHFFFAOYSA-N

>  <Total Molweight>  (436) 
406.389

>  <cLogP>  (436) 
3.0684

>  <cLogS>  (436) 
-6.121

>  <H-Acceptors>  (436) 
7

>  <H-Donors>  (436) 
0

>  <Rotatable Bonds>  (436) 
4

>  <Polar Surface Area>  (436) 
88.13

$$$$
CDB0437
     RDKit          3D

 21 23  0  0  0  0  0  0  0  0999 V2000
   -2.3744   -0.2779    0.1550 C   0  0  0  0  0  0  0  0  0  0  0  0
   -2.8822    0.9453   -0.0252 C   0  0  0  0  0  0  0  0  0  0  0  0
   -2.0384    2.1288   -0.2440 C   0  0  0  0  0  0  0  0  0  0  0  0
   -2.5362    3.2398   -0.3776 O   0  0  0  0  0  0  0  0  0  0  0  0
   -0.6723    1.9106   -0.2988 O   0  0  0  0  0  0  0  0  0  0  0  0
   -0.1078    0.6256   -0.1151 C   0  0  0  0  0  0  0  0  0  0  0  0
   -0.9278   -0.4876    0.1443 C   0  0  0  0  0  0  0  0  0  0  0  0
   -0.3218   -1.7392    0.3460 C   0  0  0  0  0  0  0  0  0  0  0  0
    1.0634   -1.9213    0.2600 C   0  0  0  0  0  0  0  0  0  0  0  0
    1.8230   -0.7872   -0.0068 C   0  0  0  0  0  0  0  0  0  0  0  0
    1.2886    0.4808   -0.1923 C   0  0  0  0  0  0  0  0  0  0  0  0
    2.3975    1.3365   -0.4292 C   0  0  0  0  0  0  0  0  0  0  0  0
    3.5195    0.5420   -0.3741 C   0  0  0  0  0  0  0  0  0  0  0  0
    3.1796   -0.7486   -0.1177 O   0  0  0  0  0  0  0  0  0  0  0  0
   -1.0350   -2.8718    0.6436 O   0  0  0  0  0  0  0  0  0  0  0  0
   -3.0439   -1.1204    0.2781 H   0  0  0  0  0  0  0  0  0  0  0  0
   -3.9507    1.1252   -0.0310 H   0  0  0  0  0  0  0  0  0  0  0  0
    1.5258   -2.8900    0.4055 H   0  0  0  0  0  0  0  0  0  0  0  0
    2.3757    2.4006   -0.6183 H   0  0  0  0  0  0  0  0  0  0  0  0
    4.5778    0.7310   -0.4897 H   0  0  0  0  0  0  0  0  0  0  0  0
   -1.8607   -2.6221    1.0872 H   0  0  0  0  0  0  0  0  0  0  0  0
  1  2  2  0
  2  3  1  0
  3  4  2  0
  3  5  1  0
  5  6  1  0
  6  7  1  0
  7  8  2  0
  8  9  1  0
  9 10  2  0
 10 11  1  0
 11 12  1  0
 12 13  2  0
 13 14  1  0
  8 15  1  0
  7  1  1  0
 11  6  2  0
 14 10  1  0
  1 16  1  0
  2 17  1  0
  9 18  1  0
 12 19  1  0
 13 20  1  0
 15 21  1  0
M  END
>  <Name>  (437) 
Isobergaptol

>  <PubChem ID>  (437) 
10198122

>  <CDB ID>  (437) 
CDB0437

>  <Smiles>  (437) 
C1=CC(=O)OC2=C1C(=CC3=C2C=CO3)O

>  <Chemical class>  (437) 
5,7-Dioxygenated Coumarins

>  <Natural source>  (437) 
Heracleum thomsoni

>  <Molecular Formula>  (437) 
C11H6O4

>  <InChI-Key>  (437) 
OOWBIFOFDYBTAE-UHFFFAOYSA-N

>  <Total Molweight>  (437) 
202.165

>  <cLogP>  (437) 
1.6033

>  <cLogS>  (437) 
-3.233

>  <H-Acceptors>  (437) 
4

>  <H-Donors>  (437) 
1

>  <Rotatable Bonds>  (437) 
0

>  <Polar Surface Area>  (437) 
59.67

$$$$
CDB0438
     RDKit          3D

 24 26  0  0  0  0  0  0  0  0999 V2000
    3.0679   -1.8798   -0.0196 C   0  0  0  0  0  0  0  0  0  0  0  0
    2.4553   -0.5957   -0.0249 O   0  0  0  0  0  0  0  0  0  0  0  0
    1.0803   -0.5452   -0.0081 C   0  0  0  0  0  0  0  0  0  0  0  0
    0.5100    0.7476   -0.0140 C   0  0  0  0  0  0  0  0  0  0  0  0
    1.3249    1.9626   -0.0366 C   0  0  0  0  0  0  0  0  0  0  0  0
    0.7503    3.1685   -0.0416 C   0  0  0  0  0  0  0  0  0  0  0  0
   -0.7084    3.3450   -0.0250 C   0  0  0  0  0  0  0  0  0  0  0  0
   -1.2073    4.4640   -0.0300 O   0  0  0  0  0  0  0  0  0  0  0  0
   -1.4728    2.1895   -0.0037 O   0  0  0  0  0  0  0  0  0  0  0  0
   -0.8870    0.9015    0.0020 C   0  0  0  0  0  0  0  0  0  0  0  0
   -1.7194   -0.2275    0.0240 C   0  0  0  0  0  0  0  0  0  0  0  0
   -3.1183   -0.4721    0.0441 C   0  0  0  0  0  0  0  0  0  0  0  0
   -3.2724   -1.8391    0.0599 C   0  0  0  0  0  0  0  0  0  0  0  0
   -2.0618   -2.4567    0.0509 O   0  0  0  0  0  0  0  0  0  0  0  0
   -1.1162   -1.4764    0.0290 C   0  0  0  0  0  0  0  0  0  0  0  0
    0.2628   -1.6866    0.0138 C   0  0  0  0  0  0  0  0  0  0  0  0
    2.7976   -2.4496   -0.9146 H   0  0  0  0  0  0  0  0  0  0  0  0
    2.8203   -2.4312    0.8934 H   0  0  0  0  0  0  0  0  0  0  0  0
    4.1520   -1.7319   -0.0347 H   0  0  0  0  0  0  0  0  0  0  0  0
    2.4058    1.8671   -0.0493 H   0  0  0  0  0  0  0  0  0  0  0  0
    1.3365    4.0791   -0.0582 H   0  0  0  0  0  0  0  0  0  0  0  0
   -3.9118    0.2620    0.0466 H   0  0  0  0  0  0  0  0  0  0  0  0
   -4.1312   -2.4959    0.0774 H   0  0  0  0  0  0  0  0  0  0  0  0
    0.6430   -2.6988    0.0193 H   0  0  0  0  0  0  0  0  0  0  0  0
  1  2  1  0
  2  3  1  0
  3  4  2  0
  4  5  1  0
  5  6  2  0
  6  7  1  0
  7  8  2  0
  7  9  1  0
  9 10  1  0
 10 11  2  0
 11 12  1  0
 12 13  2  0
 13 14  1  0
 14 15  1  0
 15 16  2  0
 16  3  1  0
 10  4  1  0
 15 11  1  0
  1 17  1  0
  1 18  1  0
  1 19  1  0
  5 20  1  0
  6 21  1  0
 12 22  1  0
 13 23  1  0
 16 24  1  0
M  END
>  <Name>  (438) 
Isobergapten

>  <PubChem ID>  (438) 
68082

>  <CDB ID>  (438) 
CDB0438

>  <Smiles>  (438) 
COC1=C2C=CC(=O)OC2=C3C=COC3=C1

>  <Chemical class>  (438) 
5,7-Dioxygenated Coumarins

>  <Natural source>  (438) 
Pimpinella saxifraga

>  <Molecular Formula>  (438) 
C12H8O4

>  <InChI-Key>  (438) 
AJSPSRWWZBBIOR-UHFFFAOYSA-N

>  <Total Molweight>  (438) 
216.192

>  <cLogP>  (438) 
1.879

>  <cLogS>  (438) 
-3.547

>  <H-Acceptors>  (438) 
4

>  <H-Donors>  (438) 
0

>  <Rotatable Bonds>  (438) 
1

>  <Polar Surface Area>  (438) 
48.67

$$$$
CDB0439
     RDKit          3D

 34 36  0  0  0  0  0  0  0  0999 V2000
    4.6437   -0.8232   -1.1719 C   0  0  0  0  0  0  0  0  0  0  0  0
    3.9090   -0.2919    0.0279 C   0  0  0  0  0  0  0  0  0  0  0  0
    2.5834   -0.0519    0.0826 C   0  0  0  0  0  0  0  0  0  0  0  0
    1.5583   -0.2907   -0.9892 C   0  0  0  0  0  0  0  0  0  0  0  0
    0.3919   -0.8797   -0.4036 O   0  0  0  0  0  0  0  0  0  0  0  0
   -0.7011   -0.0802   -0.1640 C   0  0  0  0  0  0  0  0  0  0  0  0
   -1.9441   -0.7427   -0.0604 C   0  0  0  0  0  0  0  0  0  0  0  0
   -2.0746   -2.1910   -0.2203 C   0  0  0  0  0  0  0  0  0  0  0  0
   -3.2688   -2.7817   -0.1237 C   0  0  0  0  0  0  0  0  0  0  0  0
   -4.5010   -2.0266    0.1429 C   0  0  0  0  0  0  0  0  0  0  0  0
   -5.5833   -2.5953    0.2218 O   0  0  0  0  0  0  0  0  0  0  0  0
   -4.3676   -0.6559    0.2968 O   0  0  0  0  0  0  0  0  0  0  0  0
   -3.1134   -0.0081    0.2007 C   0  0  0  0  0  0  0  0  0  0  0  0
   -3.0475    1.3829    0.3714 C   0  0  0  0  0  0  0  0  0  0  0  0
   -3.9691    2.4296    0.6400 C   0  0  0  0  0  0  0  0  0  0  0  0
   -3.2322    3.5900    0.6954 C   0  0  0  0  0  0  0  0  0  0  0  0
   -1.9157    3.3310    0.4790 O   0  0  0  0  0  0  0  0  0  0  0  0
   -1.8029    1.9883    0.2792 C   0  0  0  0  0  0  0  0  0  0  0  0
   -0.6126    1.3084    0.0221 C   0  0  0  0  0  0  0  0  0  0  0  0
    4.7874   -0.0228    1.2224 C   0  0  0  0  0  0  0  0  0  0  0  0
    5.0389   -1.8218   -0.9595 H   0  0  0  0  0  0  0  0  0  0  0  0
    5.4839   -0.1656   -1.4198 H   0  0  0  0  0  0  0  0  0  0  0  0
    4.0203   -0.8906   -2.0664 H   0  0  0  0  0  0  0  0  0  0  0  0
    2.1742    0.3490    1.0091 H   0  0  0  0  0  0  0  0  0  0  0  0
    1.3369    0.6264   -1.5457 H   0  0  0  0  0  0  0  0  0  0  0  0
    1.9162   -1.0193   -1.7218 H   0  0  0  0  0  0  0  0  0  0  0  0
   -1.1832   -2.7785   -0.4154 H   0  0  0  0  0  0  0  0  0  0  0  0
   -3.3859   -3.8524   -0.2374 H   0  0  0  0  0  0  0  0  0  0  0  0
   -5.0377    2.3423    0.7783 H   0  0  0  0  0  0  0  0  0  0  0  0
   -3.4807    4.6275    0.8714 H   0  0  0  0  0  0  0  0  0  0  0  0
    0.3176    1.8594   -0.0065 H   0  0  0  0  0  0  0  0  0  0  0  0
    4.2203    0.3545    2.0798 H   0  0  0  0  0  0  0  0  0  0  0  0
    5.5488    0.7235    0.9731 H   0  0  0  0  0  0  0  0  0  0  0  0
    5.2909   -0.9430    1.5365 H   0  0  0  0  0  0  0  0  0  0  0  0
  1  2  1  0
  2  3  2  3
  3  4  1  0
  4  5  1  0
  5  6  1  0
  6  7  2  0
  7  8  1  0
  8  9  2  0
  9 10  1  0
 10 11  2  0
 10 12  1  0
 12 13  1  0
 13 14  2  0
 14 15  1  0
 15 16  2  0
 16 17  1  0
 17 18  1  0
 18 19  2  0
  2 20  1  0
 19  6  1  0
 13  7  1  0
 18 14  1  0
  1 21  1  0
  1 22  1  0
  1 23  1  0
  3 24  1  0
  4 25  1  0
  4 26  1  0
  8 27  1  0
  9 28  1  0
 15 29  1  0
 16 30  1  0
 19 31  1  0
 20 32  1  0
 20 33  1  0
 20 34  1  0
M  END
>  <Name>  (439) 
Lanatin

>  <PubChem ID>  (439) 
53398715

>  <CDB ID>  (439) 
CDB0439

>  <Smiles>  (439) 
CC(=CCOC1=C2C=CC(=O)OC2=C3C=COC3=C1)C

>  <Chemical class>  (439) 
5,7-Dioxygenated Coumarins

>  <Natural source>  (439) 
Heracleum lanatum

>  <Molecular Formula>  (439) 
C16H14O4

>  <InChI-Key>  (439) 
KRMAZPGDYXHYMX-UHFFFAOYSA-N

>  <Total Molweight>  (439) 
270.283

>  <cLogP>  (439) 
3.5483

>  <cLogS>  (439) 
-4.283

>  <H-Acceptors>  (439) 
4

>  <H-Donors>  (439) 
0

>  <Rotatable Bonds>  (439) 
3

>  <Polar Surface Area>  (439) 
48.67

$$$$
CDB0440
     RDKit          3D

 37 39  0  0  0  0  0  0  0  0999 V2000
    3.6479   -1.7050    0.3703 C   0  0  0  0  0  0  0  0  0  0  0  0
    2.4640   -0.9561   -0.2647 C   0  0  0  0  0  0  0  0  0  0  0  0
    2.6146    0.5519   -0.0013 C   0  0  0  0  0  0  0  0  0  0  0  0
    1.3785    1.3109   -0.4996 C   0  0  0  0  0  0  0  0  0  0  0  0
    0.1120    0.6202   -0.0762 C   0  0  0  0  0  0  0  0  0  0  0  0
   -1.1435    1.2439   -0.1244 C   0  0  0  0  0  0  0  0  0  0  0  0
   -2.3240    0.5974    0.2624 C   0  0  0  0  0  0  0  0  0  0  0  0
   -2.2582   -0.7325    0.7083 C   0  0  0  0  0  0  0  0  0  0  0  0
   -1.0186   -1.3784    0.7334 C   0  0  0  0  0  0  0  0  0  0  0  0
    0.1479   -0.7159    0.3289 C   0  0  0  0  0  0  0  0  0  0  0  0
    1.2834   -1.4797    0.3767 O   0  0  0  0  0  0  0  0  0  0  0  0
   -3.4437   -1.3131    1.0815 O   0  0  0  0  0  0  0  0  0  0  0  0
   -3.3966   -2.6471    1.5740 C   0  0  0  0  0  0  0  0  0  0  0  0
   -3.5795    1.3412    0.1820 C   0  0  0  0  0  0  0  0  0  0  0  0
   -3.5972    2.6014   -0.2600 C   0  0  0  0  0  0  0  0  0  0  0  0
   -2.3755    3.2973   -0.6818 C   0  0  0  0  0  0  0  0  0  0  0  0
   -2.4073    4.4529   -1.0852 O   0  0  0  0  0  0  0  0  0  0  0  0
   -1.1901    2.5796   -0.5952 O   0  0  0  0  0  0  0  0  0  0  0  0
    1.4914    2.6469    0.0100 O   0  0  0  0  0  0  0  0  0  0  0  0
    3.7901    1.0929   -0.6195 O   0  0  0  0  0  0  0  0  0  0  0  0
    2.4228   -1.3184   -1.7589 C   0  0  0  0  0  0  0  0  0  0  0  0
    4.6047   -1.4147   -0.0756 H   0  0  0  0  0  0  0  0  0  0  0  0
    3.5297   -2.7892    0.2577 H   0  0  0  0  0  0  0  0  0  0  0  0
    3.6950   -1.5134    1.4487 H   0  0  0  0  0  0  0  0  0  0  0  0
    2.7222    0.7232    1.0791 H   0  0  0  0  0  0  0  0  0  0  0  0
    1.3996    1.3933   -1.5929 H   0  0  0  0  0  0  0  0  0  0  0  0
   -0.9211   -2.4114    1.0532 H   0  0  0  0  0  0  0  0  0  0  0  0
   -2.7798   -2.7141    2.4762 H   0  0  0  0  0  0  0  0  0  0  0  0
   -3.0481   -3.3398    0.8011 H   0  0  0  0  0  0  0  0  0  0  0  0
   -4.4158   -2.9382    1.8458 H   0  0  0  0  0  0  0  0  0  0  0  0
   -4.4978    0.8499    0.4876 H   0  0  0  0  0  0  0  0  0  0  0  0
   -4.5165    3.1700   -0.3279 H   0  0  0  0  0  0  0  0  0  0  0  0
    0.6640    3.1095   -0.2181 H   0  0  0  0  0  0  0  0  0  0  0  0
    3.7364    2.0570   -0.4619 H   0  0  0  0  0  0  0  0  0  0  0  0
    2.3276   -2.4030   -1.8891 H   0  0  0  0  0  0  0  0  0  0  0  0
    1.5551   -0.8809   -2.2627 H   0  0  0  0  0  0  0  0  0  0  0  0
    3.3263   -0.9884   -2.2816 H   0  0  0  0  0  0  0  0  0  0  0  0
  1  2  1  0
  2  3  1  0
  3  4  1  0
  4  5  1  0
  5  6  1  0
  6  7  2  0
  7  8  1  0
  8  9  2  0
  9 10  1  0
 10 11  1  0
  8 12  1  0
 12 13  1  0
  7 14  1  0
 14 15  2  0
 15 16  1  0
 16 17  2  0
 16 18  1  0
  4 19  1  0
  3 20  1  0
  2 21  1  0
 11  2  1  0
 10  5  2  0
 18  6  1  0
  1 22  1  0
  1 23  1  0
  1 24  1  0
  3 25  1  0
  4 26  1  0
  9 27  1  0
 13 28  1  0
 13 29  1  0
 13 30  1  0
 14 31  1  0
 15 32  1  0
 19 33  1  0
 20 34  1  0
 21 35  1  0
 21 36  1  0
 21 37  1  0
M  END
>  <Name>  (440) 
Cis-Grandmarin

>  <PubChem ID>  (440) 
21574272

>  <CDB ID>  (440) 
CDB0440

>  <Smiles>  (440) 
CC1(C(C(C2=C3C(=C(C=C2O1)OC)C=CC(=O)O3)O)O)C

>  <Chemical class>  (440) 
5,7-Dioxygenated Coumarins

>  <Natural source>  (440) 
Citrus medica

>  <Molecular Formula>  (440) 
C15H16O6

>  <InChI-Key>  (440) 
RRUHFAXVNXSPNG-UHFFFAOYSA-N

>  <Total Molweight>  (440) 
292.286

>  <cLogP>  (440) 
1.0398

>  <cLogS>  (440) 
-2.565

>  <H-Acceptors>  (440) 
6

>  <H-Donors>  (440) 
2

>  <Rotatable Bonds>  (440) 
1

>  <Polar Surface Area>  (440) 
85.22

$$$$
CDB0441
     RDKit          3D

 37 39  0  0  0  0  0  0  0  0999 V2000
    3.6479   -1.7050    0.3703 C   0  0  0  0  0  0  0  0  0  0  0  0
    2.4640   -0.9561   -0.2647 C   0  0  0  0  0  0  0  0  0  0  0  0
    2.6146    0.5519   -0.0013 C   0  0  0  0  0  0  0  0  0  0  0  0
    1.3785    1.3109   -0.4996 C   0  0  0  0  0  0  0  0  0  0  0  0
    0.1120    0.6202   -0.0762 C   0  0  0  0  0  0  0  0  0  0  0  0
   -1.1435    1.2439   -0.1244 C   0  0  0  0  0  0  0  0  0  0  0  0
   -2.3240    0.5974    0.2624 C   0  0  0  0  0  0  0  0  0  0  0  0
   -2.2582   -0.7325    0.7083 C   0  0  0  0  0  0  0  0  0  0  0  0
   -1.0186   -1.3784    0.7334 C   0  0  0  0  0  0  0  0  0  0  0  0
    0.1479   -0.7159    0.3289 C   0  0  0  0  0  0  0  0  0  0  0  0
    1.2834   -1.4797    0.3767 O   0  0  0  0  0  0  0  0  0  0  0  0
   -3.4437   -1.3131    1.0815 O   0  0  0  0  0  0  0  0  0  0  0  0
   -3.3966   -2.6471    1.5740 C   0  0  0  0  0  0  0  0  0  0  0  0
   -3.5795    1.3412    0.1820 C   0  0  0  0  0  0  0  0  0  0  0  0
   -3.5972    2.6014   -0.2600 C   0  0  0  0  0  0  0  0  0  0  0  0
   -2.3755    3.2973   -0.6818 C   0  0  0  0  0  0  0  0  0  0  0  0
   -2.4073    4.4529   -1.0852 O   0  0  0  0  0  0  0  0  0  0  0  0
   -1.1901    2.5796   -0.5952 O   0  0  0  0  0  0  0  0  0  0  0  0
    1.4914    2.6469    0.0100 O   0  0  0  0  0  0  0  0  0  0  0  0
    3.7901    1.0929   -0.6195 O   0  0  0  0  0  0  0  0  0  0  0  0
    2.4228   -1.3184   -1.7589 C   0  0  0  0  0  0  0  0  0  0  0  0
    4.6047   -1.4147   -0.0756 H   0  0  0  0  0  0  0  0  0  0  0  0
    3.5297   -2.7892    0.2577 H   0  0  0  0  0  0  0  0  0  0  0  0
    3.6950   -1.5134    1.4487 H   0  0  0  0  0  0  0  0  0  0  0  0
    2.7222    0.7232    1.0791 H   0  0  0  0  0  0  0  0  0  0  0  0
    1.3996    1.3933   -1.5929 H   0  0  0  0  0  0  0  0  0  0  0  0
   -0.9211   -2.4114    1.0532 H   0  0  0  0  0  0  0  0  0  0  0  0
   -2.7798   -2.7141    2.4762 H   0  0  0  0  0  0  0  0  0  0  0  0
   -3.0481   -3.3398    0.8011 H   0  0  0  0  0  0  0  0  0  0  0  0
   -4.4158   -2.9382    1.8458 H   0  0  0  0  0  0  0  0  0  0  0  0
   -4.4978    0.8499    0.4876 H   0  0  0  0  0  0  0  0  0  0  0  0
   -4.5165    3.1700   -0.3279 H   0  0  0  0  0  0  0  0  0  0  0  0
    0.6640    3.1095   -0.2181 H   0  0  0  0  0  0  0  0  0  0  0  0
    3.7364    2.0570   -0.4619 H   0  0  0  0  0  0  0  0  0  0  0  0
    2.3276   -2.4030   -1.8891 H   0  0  0  0  0  0  0  0  0  0  0  0
    1.5551   -0.8809   -2.2627 H   0  0  0  0  0  0  0  0  0  0  0  0
    3.3263   -0.9884   -2.2816 H   0  0  0  0  0  0  0  0  0  0  0  0
  1  2  1  0
  2  3  1  0
  3  4  1  0
  4  5  1  0
  5  6  1  0
  6  7  2  0
  7  8  1  0
  8  9  2  0
  9 10  1  0
 10 11  1  0
  8 12  1  0
 12 13  1  0
  7 14  1  0
 14 15  2  0
 15 16  1  0
 16 17  2  0
 16 18  1  0
  4 19  1  0
  3 20  1  0
  2 21  1  0
 11  2  1  0
 10  5  2  0
 18  6  1  0
  1 22  1  0
  1 23  1  0
  1 24  1  0
  3 25  1  0
  4 26  1  0
  9 27  1  0
 13 28  1  0
 13 29  1  0
 13 30  1  0
 14 31  1  0
 15 32  1  0
 19 33  1  0
 20 34  1  0
 21 35  1  0
 21 36  1  0
 21 37  1  0
M  END
>  <Name>  (441) 
Trans-Grandmarin

>  <PubChem ID>  (441) 
14213970

>  <CDB ID>  (441) 
CDB0441

>  <Smiles>  (441) 
CC1(C(C(C2=C3C(=C(C=C2O1)OC)C=CC(=O)O3)O)O)C

>  <Chemical class>  (441) 
5,7-Dioxygenated Coumarins

>  <Natural source>  (441) 
Citrus tamurana x C. kinokuni

>  <Molecular Formula>  (441) 
C15H16O6

>  <InChI-Key>  (441) 
RRUHFAXVNXSPNG-UHFFFAOYSA-N

>  <Total Molweight>  (441) 
292.286

>  <cLogP>  (441) 
1.0398

>  <cLogS>  (441) 
-2.565

>  <H-Acceptors>  (441) 
6

>  <H-Donors>  (441) 
2

>  <Rotatable Bonds>  (441) 
1

>  <Polar Surface Area>  (441) 
85.22

$$$$
CDB0442
     RDKit          3D

 47 49  0  0  0  0  0  0  0  0999 V2000
   -6.0898    0.1923   -0.8046 C   0  0  0  0  0  0  0  0  0  0  0  0
   -5.1727    0.0155    0.3735 C   0  0  0  0  0  0  0  0  0  0  0  0
   -3.9668   -0.5858    0.3391 C   0  0  0  0  0  0  0  0  0  0  0  0
   -3.2709   -1.2267   -0.8344 C   0  0  0  0  0  0  0  0  0  0  0  0
   -2.0195   -0.4757   -1.2401 C   0  0  0  0  0  0  0  0  0  0  0  0
   -0.7928   -0.6791   -0.5703 C   0  0  0  0  0  0  0  0  0  0  0  0
    0.3356    0.1065   -0.8620 C   0  0  0  0  0  0  0  0  0  0  0  0
    0.2382    1.0420   -1.8859 C   0  0  0  0  0  0  0  0  0  0  0  0
   -0.9417    1.2399   -2.5974 C   0  0  0  0  0  0  0  0  0  0  0  0
   -2.0645    0.4888   -2.2596 C   0  0  0  0  0  0  0  0  0  0  0  0
   -3.2366    0.6906   -2.9346 O   0  0  0  0  0  0  0  0  0  0  0  0
    1.3384    1.8436   -2.2471 O   0  0  0  0  0  0  0  0  0  0  0  0
    2.5604    1.7658   -1.5837 C   0  0  0  0  0  0  0  0  0  0  0  0
    3.4909    2.5042   -1.8907 O   0  0  0  0  0  0  0  0  0  0  0  0
    2.6478    0.7781   -0.4750 C   0  0  0  0  0  0  0  0  0  0  0  0
    1.5997    0.0090   -0.1413 C   0  0  0  0  0  0  0  0  0  0  0  0
    3.9102    0.6126    0.2642 C   0  0  0  0  0  0  0  0  0  0  0  0
    4.9879   -0.0886   -0.2949 C   0  0  0  0  0  0  0  0  0  0  0  0
    6.1837   -0.2380    0.4055 C   0  0  0  0  0  0  0  0  0  0  0  0
    6.3013    0.3179    1.6749 C   0  0  0  0  0  0  0  0  0  0  0  0
    5.2460    1.0165    2.2542 C   0  0  0  0  0  0  0  0  0  0  0  0
    4.0492    1.1624    1.5479 C   0  0  0  0  0  0  0  0  0  0  0  0
    7.4857    0.1515    2.3306 O   0  0  0  0  0  0  0  0  0  0  0  0
    4.8511   -0.6419   -1.5398 O   0  0  0  0  0  0  0  0  0  0  0  0
   -0.7284   -1.6179    0.4347 O   0  0  0  0  0  0  0  0  0  0  0  0
   -0.2568   -2.8655   -0.0843 C   0  0  0  0  0  0  0  0  0  0  0  0
   -5.7030    0.5922    1.6602 C   0  0  0  0  0  0  0  0  0  0  0  0
   -7.0466   -0.3046   -0.6126 H   0  0  0  0  0  0  0  0  0  0  0  0
   -5.6924   -0.2149   -1.7358 H   0  0  0  0  0  0  0  0  0  0  0  0
   -6.2830    1.2572   -0.9725 H   0  0  0  0  0  0  0  0  0  0  0  0
   -3.3947   -0.6452    1.2656 H   0  0  0  0  0  0  0  0  0  0  0  0
   -3.9320   -1.3497   -1.6970 H   0  0  0  0  0  0  0  0  0  0  0  0
   -3.0144   -2.2558   -0.5565 H   0  0  0  0  0  0  0  0  0  0  0  0
   -0.9700    1.9820   -3.3883 H   0  0  0  0  0  0  0  0  0  0  0  0
   -3.1285    1.4374   -3.5464 H   0  0  0  0  0  0  0  0  0  0  0  0
    1.6668   -0.7092    0.6701 H   0  0  0  0  0  0  0  0  0  0  0  0
    7.0230   -0.7817   -0.0150 H   0  0  0  0  0  0  0  0  0  0  0  0
    5.3345    1.4533    3.2441 H   0  0  0  0  0  0  0  0  0  0  0  0
    3.2287    1.7156    2.0002 H   0  0  0  0  0  0  0  0  0  0  0  0
    7.4396    0.6182    3.1816 H   0  0  0  0  0  0  0  0  0  0  0  0
    5.7279   -0.9262   -1.8480 H   0  0  0  0  0  0  0  0  0  0  0  0
   -0.3398   -3.6098    0.7133 H   0  0  0  0  0  0  0  0  0  0  0  0
    0.7958   -2.8001   -0.3776 H   0  0  0  0  0  0  0  0  0  0  0  0
   -0.8606   -3.2080   -0.9318 H   0  0  0  0  0  0  0  0  0  0  0  0
   -6.6502    0.1126    1.9282 H   0  0  0  0  0  0  0  0  0  0  0  0
   -5.0109    0.4505    2.4970 H   0  0  0  0  0  0  0  0  0  0  0  0
   -5.8757    1.6679    1.5509 H   0  0  0  0  0  0  0  0  0  0  0  0
  1  2  1  0
  2  3  2  3
  3  4  1  0
  4  5  1  0
  5  6  1  0
  6  7  2  0
  7  8  1  0
  8  9  2  0
  9 10  1  0
 10 11  1  0
  8 12  1  0
 12 13  1  0
 13 14  2  0
 13 15  1  0
 15 16  2  0
 15 17  1  0
 17 18  2  0
 18 19  1  0
 19 20  2  0
 20 21  1  0
 21 22  2  0
 20 23  1  0
 18 24  1  0
  6 25  1  0
 25 26  1  0
  2 27  1  0
 10  5  2  0
 16  7  1  0
 22 17  1  0
  1 28  1  0
  1 29  1  0
  1 30  1  0
  3 31  1  0
  4 32  1  0
  4 33  1  0
  9 34  1  0
 11 35  1  0
 16 36  1  0
 19 37  1  0
 21 38  1  0
 22 39  1  0
 23 40  1  0
 24 41  1  0
 26 42  1  0
 26 43  1  0
 26 44  1  0
 27 45  1  0
 27 46  1  0
 27 47  1  0
M  END
>  <Name>  (442) 
Glycycoumarin

>  <PubChem ID>  (442) 
5317756

>  <CDB ID>  (442) 
CDB0442

>  <Smiles>  (442) 
CC(=CCC1=C(C2=C(C=C1O)OC(=O)C(=C2)C3=C(C=C(C=C3)O)O)OC)C

>  <Chemical class>  (442) 
5,7-Dioxygenated Coumarins

>  <Natural source>  (442) 
Glycyrrhiza uralensis

>  <Molecular Formula>  (442) 
C21H20O6

>  <InChI-Key>  (442) 
NZYSZZDSYIBYLC-UHFFFAOYSA-N

>  <Total Molweight>  (442) 
368.384

>  <cLogP>  (442) 
3.668

>  <cLogS>  (442) 
-3.396

>  <H-Acceptors>  (442) 
6

>  <H-Donors>  (442) 
3

>  <Rotatable Bonds>  (442) 
4

>  <Polar Surface Area>  (442) 
96.22

$$$$
CDB0443
     RDKit          3D

 50 52  0  0  0  0  0  0  0  0999 V2000
   -5.9206    0.8873    0.4051 C   0  0  0  0  0  0  0  0  0  0  0  0
   -5.0807    0.5222   -0.7876 C   0  0  0  0  0  0  0  0  0  0  0  0
   -3.7799    0.8359   -0.9529 C   0  0  0  0  0  0  0  0  0  0  0  0
   -2.8780    1.6148   -0.0292 C   0  0  0  0  0  0  0  0  0  0  0  0
   -1.7271    0.7849    0.5133 C   0  0  0  0  0  0  0  0  0  0  0  0
   -1.9208   -0.0526    1.6350 C   0  0  0  0  0  0  0  0  0  0  0  0
   -0.8522   -0.7962    2.1393 C   0  0  0  0  0  0  0  0  0  0  0  0
    0.4031   -0.6906    1.5425 C   0  0  0  0  0  0  0  0  0  0  0  0
    0.6354    0.1245    0.4442 C   0  0  0  0  0  0  0  0  0  0  0  0
   -0.4507    0.8320   -0.0928 C   0  0  0  0  0  0  0  0  0  0  0  0
   -0.2683    1.6459   -1.1866 O   0  0  0  0  0  0  0  0  0  0  0  0
   -0.3252    0.8884   -2.3991 C   0  0  0  0  0  0  0  0  0  0  0  0
    2.0034    0.2294   -0.0519 C   0  0  0  0  0  0  0  0  0  0  0  0
    3.0092   -0.4873    0.4803 C   0  0  0  0  0  0  0  0  0  0  0  0
    2.7217   -1.4544    1.5751 C   0  0  0  0  0  0  0  0  0  0  0  0
    3.5797   -2.2308    1.9912 O   0  0  0  0  0  0  0  0  0  0  0  0
    1.4383   -1.4604    2.1042 O   0  0  0  0  0  0  0  0  0  0  0  0
    4.3849   -0.3167   -0.0561 C   0  0  0  0  0  0  0  0  0  0  0  0
    5.2027   -1.3944   -0.4409 C   0  0  0  0  0  0  0  0  0  0  0  0
    6.4611   -1.1934   -1.0112 C   0  0  0  0  0  0  0  0  0  0  0  0
    6.9368    0.1012   -1.1691 C   0  0  0  0  0  0  0  0  0  0  0  0
    6.1745    1.1892   -0.7675 C   0  0  0  0  0  0  0  0  0  0  0  0
    4.9073    0.9820   -0.2142 C   0  0  0  0  0  0  0  0  0  0  0  0
    8.1621    0.3486   -1.7124 O   0  0  0  0  0  0  0  0  0  0  0  0
    4.8253   -2.7018   -0.2875 O   0  0  0  0  0  0  0  0  0  0  0  0
   -3.1806   -0.0563    2.1750 O   0  0  0  0  0  0  0  0  0  0  0  0
   -3.4628   -1.0119    3.1889 C   0  0  0  0  0  0  0  0  0  0  0  0
   -5.8173   -0.2665   -1.8393 C   0  0  0  0  0  0  0  0  0  0  0  0
   -6.2847   -0.0201    0.8987 H   0  0  0  0  0  0  0  0  0  0  0  0
   -5.3882    1.4745    1.1552 H   0  0  0  0  0  0  0  0  0  0  0  0
   -6.7869    1.4770    0.0870 H   0  0  0  0  0  0  0  0  0  0  0  0
   -3.2930    0.5115   -1.8706 H   0  0  0  0  0  0  0  0  0  0  0  0
   -3.4182    2.0664    0.8085 H   0  0  0  0  0  0  0  0  0  0  0  0
   -2.4907    2.4781   -0.5846 H   0  0  0  0  0  0  0  0  0  0  0  0
   -0.9574   -1.4470    3.0002 H   0  0  0  0  0  0  0  0  0  0  0  0
   -0.9727    0.0071   -2.3265 H   0  0  0  0  0  0  0  0  0  0  0  0
   -0.7232    1.5405   -3.1823 H   0  0  0  0  0  0  0  0  0  0  0  0
    0.6822    0.5804   -2.6941 H   0  0  0  0  0  0  0  0  0  0  0  0
    2.1799    0.9326   -0.8603 H   0  0  0  0  0  0  0  0  0  0  0  0
    7.0510   -2.0539   -1.3095 H   0  0  0  0  0  0  0  0  0  0  0  0
    6.5617    2.1974   -0.8874 H   0  0  0  0  0  0  0  0  0  0  0  0
    4.3322    1.8542    0.0917 H   0  0  0  0  0  0  0  0  0  0  0  0
    8.5764   -0.5008   -1.9391 H   0  0  0  0  0  0  0  0  0  0  0  0
    4.4884   -2.7950    0.6311 H   0  0  0  0  0  0  0  0  0  0  0  0
   -3.2786   -2.0322    2.8364 H   0  0  0  0  0  0  0  0  0  0  0  0
   -4.5260   -0.9322    3.4354 H   0  0  0  0  0  0  0  0  0  0  0  0
   -2.8935   -0.7973    4.0990 H   0  0  0  0  0  0  0  0  0  0  0  0
   -5.1791   -0.5224   -2.6916 H   0  0  0  0  0  0  0  0  0  0  0  0
   -6.6654    0.3111   -2.2213 H   0  0  0  0  0  0  0  0  0  0  0  0
   -6.1956   -1.2025   -1.4152 H   0  0  0  0  0  0  0  0  0  0  0  0
  1  2  1  0
  2  3  2  3
  3  4  1  0
  4  5  1  0
  5  6  2  0
  6  7  1  0
  7  8  2  0
  8  9  1  0
  9 10  2  0
 10 11  1  0
 11 12  1  0
  9 13  1  0
 13 14  2  0
 14 15  1  0
 15 16  2  0
 15 17  1  0
 14 18  1  0
 18 19  2  0
 19 20  1  0
 20 21  2  0
 21 22  1  0
 22 23  2  0
 21 24  1  0
 19 25  1  0
  6 26  1  0
 26 27  1  0
  2 28  1  0
 10  5  1  0
 17  8  1  0
 23 18  1  0
  1 29  1  0
  1 30  1  0
  1 31  1  0
  3 32  1  0
  4 33  1  0
  4 34  1  0
  7 35  1  0
 12 36  1  0
 12 37  1  0
 12 38  1  0
 13 39  1  0
 20 40  1  0
 22 41  1  0
 23 42  1  0
 24 43  1  0
 25 44  1  0
 27 45  1  0
 27 46  1  0
 27 47  1  0
 28 48  1  0
 28 49  1  0
 28 50  1  0
M  END
>  <Name>  (443) 
Glycyrin

>  <PubChem ID>  (443) 
480787

>  <CDB ID>  (443) 
CDB0443

>  <Smiles>  (443) 
CC(=CCC1=C(C=C2C(=C1OC)C=C(C(=O)O2)C3=C(C=C(C=C3)O)O)OC)C

>  <Chemical class>  (443) 
5,7-Dioxygenated Coumarins

>  <Natural source>  (443) 
Glycyrrhiza sp.

>  <Molecular Formula>  (443) 
C22H22O6

>  <InChI-Key>  (443) 
FWWGXZYUURXJLK-UHFFFAOYSA-N

>  <Total Molweight>  (443) 
382.411

>  <cLogP>  (443) 
3.9437

>  <cLogS>  (443) 
-3.71

>  <H-Acceptors>  (443) 
6

>  <H-Donors>  (443) 
2

>  <Rotatable Bonds>  (443) 
5

>  <Polar Surface Area>  (443) 
85.22

$$$$
CDB0444
     RDKit          3D

 39 41  0  0  0  0  0  0  0  0999 V2000
   -2.1619    1.5702   -1.8861 C   0  0  0  0  0  0  0  0  0  0  0  0
   -2.1999    0.1440   -1.9433 O   0  0  0  0  0  0  0  0  0  0  0  0
   -2.6518   -0.3789   -0.7559 C   0  0  0  0  0  0  0  0  0  0  0  0
   -1.7687   -1.1147    0.0536 C   0  0  0  0  0  0  0  0  0  0  0  0
   -2.2510   -1.6824    1.2428 C   0  0  0  0  0  0  0  0  0  0  0  0
   -3.5899   -1.5257    1.6067 C   0  0  0  0  0  0  0  0  0  0  0  0
   -4.4515   -0.8135    0.7799 C   0  0  0  0  0  0  0  0  0  0  0  0
   -3.9982   -0.2421   -0.4047 C   0  0  0  0  0  0  0  0  0  0  0  0
   -5.7544   -0.7039    1.1686 O   0  0  0  0  0  0  0  0  0  0  0  0
   -0.3544   -1.3239   -0.3274 C   0  0  0  0  0  0  0  0  0  0  0  0
   -0.1509   -2.3696   -1.1465 C   0  0  0  0  0  0  0  0  0  0  0  0
    1.1671   -2.7632   -1.6513 C   0  0  0  0  0  0  0  0  0  0  0  0
    1.2993   -3.7297   -2.3926 O   0  0  0  0  0  0  0  0  0  0  0  0
    2.2420   -1.9971   -1.2422 O   0  0  0  0  0  0  0  0  0  0  0  0
    2.0714   -0.8905   -0.3858 C   0  0  0  0  0  0  0  0  0  0  0  0
    3.2473   -0.2054   -0.0589 C   0  0  0  0  0  0  0  0  0  0  0  0
    3.1929    0.9058    0.7789 C   0  0  0  0  0  0  0  0  0  0  0  0
    1.9426    1.3112    1.2763 C   0  0  0  0  0  0  0  0  0  0  0  0
    0.7644    0.6063    0.9360 C   0  0  0  0  0  0  0  0  0  0  0  0
    0.8133   -0.5173    0.0922 C   0  0  0  0  0  0  0  0  0  0  0  0
   -0.4552    1.0103    1.4238 O   0  0  0  0  0  0  0  0  0  0  0  0
    1.8735    2.4941    2.1648 C   0  0  0  0  0  0  0  0  0  0  0  0
    0.7966    2.8838    2.6110 O   0  0  0  0  0  0  0  0  0  0  0  0
    4.2844    1.6424    1.1560 O   0  0  0  0  0  0  0  0  0  0  0  0
    5.5590    1.2391    0.6649 C   0  0  0  0  0  0  0  0  0  0  0  0
   -3.1699    1.9901   -1.9640 H   0  0  0  0  0  0  0  0  0  0  0  0
   -1.5835    1.9228   -2.7453 H   0  0  0  0  0  0  0  0  0  0  0  0
   -1.6678    1.9293   -0.9768 H   0  0  0  0  0  0  0  0  0  0  0  0
   -1.5858   -2.2440    1.8939 H   0  0  0  0  0  0  0  0  0  0  0  0
   -3.9600   -1.9632    2.5296 H   0  0  0  0  0  0  0  0  0  0  0  0
   -4.6741    0.2928   -1.0620 H   0  0  0  0  0  0  0  0  0  0  0  0
   -6.2369   -0.1894    0.5009 H   0  0  0  0  0  0  0  0  0  0  0  0
   -0.9657   -2.9959   -1.4966 H   0  0  0  0  0  0  0  0  0  0  0  0
    4.1795   -0.5699   -0.4788 H   0  0  0  0  0  0  0  0  0  0  0  0
   -0.3319    1.7938    2.0063 H   0  0  0  0  0  0  0  0  0  0  0  0
    2.8112    3.0158    2.4149 H   0  0  0  0  0  0  0  0  0  0  0  0
    6.3051    1.9312    1.0671 H   0  0  0  0  0  0  0  0  0  0  0  0
    5.8152    0.2333    1.0134 H   0  0  0  0  0  0  0  0  0  0  0  0
    5.5985    1.3042   -0.4274 H   0  0  0  0  0  0  0  0  0  0  0  0
  1  2  1  0
  2  3  1  0
  3  4  2  0
  4  5  1  0
  5  6  2  0
  6  7  1  0
  7  8  2  0
  7  9  1  0
  4 10  1  0
 10 11  2  0
 11 12  1  0
 12 13  2  0
 12 14  1  0
 14 15  1  0
 15 16  1  0
 16 17  2  0
 17 18  1  0
 18 19  2  0
 19 20  1  0
 19 21  1  0
 18 22  1  0
 22 23  2  0
 17 24  1  0
 24 25  1  0
  8  3  1  0
 20 10  1  0
 20 15  2  0
  1 26  1  0
  1 27  1  0
  1 28  1  0
  5 29  1  0
  6 30  1  0
  8 31  1  0
  9 32  1  0
 11 33  1  0
 16 34  1  0
 21 35  1  0
 22 36  1  0
 25 37  1  0
 25 38  1  0
 25 39  1  0
M  END
>  <Name>  (444) 
Sisafolin

>  <PubChem ID>  (444) 
44257545

>  <CDB ID>  (444) 
CDB0444

>  <Smiles>  (444) 
COC1=C(C=CC(=C1)O)C2=CC(=O)OC3=CC(=C(C(=C23)O)C=O)OC

>  <Chemical class>  (444) 
5,7-Dioxygenated Coumarins

>  <Natural source>  (444) 
Dalbergia latifolia

>  <Molecular Formula>  (444) 
C18H14O7

>  <InChI-Key>  (444) 
ZXKVXOALVPANGD-UHFFFAOYSA-N

>  <Total Molweight>  (444) 
342.302

>  <cLogP>  (444) 
2.0974

>  <cLogS>  (444) 
-3.343

>  <H-Acceptors>  (444) 
7

>  <H-Donors>  (444) 
2

>  <Rotatable Bonds>  (444) 
4

>  <Polar Surface Area>  (444) 
102.29

$$$$
CDB0445
     RDKit          3D

 37 39  0  0  0  0  0  0  0  0999 V2000
   -2.7039    0.5406   -1.7439 C   0  0  0  0  0  0  0  0  0  0  0  0
   -2.1221    0.2157   -0.3460 C   0  0  0  0  0  0  0  0  0  0  0  0
   -2.6921    1.2911    0.6110 C   0  0  0  0  0  0  0  0  0  0  0  0
   -2.6115   -1.2087   -0.0589 C   0  0  0  0  0  0  0  0  0  0  0  0
   -3.4658   -1.6072    0.8949 C   0  0  0  0  0  0  0  0  0  0  0  0
   -0.5813    0.2672   -0.2769 C   0  0  0  0  0  0  0  0  0  0  0  0
    0.2735    0.7369   -1.2945 C   0  0  0  0  0  0  0  0  0  0  0  0
    1.6663    0.7781   -1.2311 C   0  0  0  0  0  0  0  0  0  0  0  0
    2.3105    0.3095   -0.0709 C   0  0  0  0  0  0  0  0  0  0  0  0
    1.5354   -0.1172    1.0159 C   0  0  0  0  0  0  0  0  0  0  0  0
    0.1381   -0.1344    0.8883 C   0  0  0  0  0  0  0  0  0  0  0  0
   -0.6323   -0.5805    2.0034 O   0  0  0  0  0  0  0  0  0  0  0  0
   -0.0838   -0.9995    3.2044 C   0  0  0  0  0  0  0  0  0  0  0  0
   -0.7637   -1.3834    4.1480 O   0  0  0  0  0  0  0  0  0  0  0  0
    1.3805   -0.9539    3.2941 C   0  0  0  0  0  0  0  0  0  0  0  0
    2.1403   -0.5421    2.2764 C   0  0  0  0  0  0  0  0  0  0  0  0
    3.6858    0.3521    0.0402 O   0  0  0  0  0  0  0  0  0  0  0  0
    4.2641   -0.7739   -0.6226 C   0  0  0  0  0  0  0  0  0  0  0  0
    2.1078    1.3406   -2.4626 C   0  0  0  0  0  0  0  0  0  0  0  0
    0.9797    1.5946   -3.1992 C   0  0  0  0  0  0  0  0  0  0  0  0
   -0.1249    1.2321   -2.5056 O   0  0  0  0  0  0  0  0  0  0  0  0
   -3.7959    0.4263   -1.7554 H   0  0  0  0  0  0  0  0  0  0  0  0
   -2.3047   -0.1236   -2.5202 H   0  0  0  0  0  0  0  0  0  0  0  0
   -2.4994    1.5762   -2.0391 H   0  0  0  0  0  0  0  0  0  0  0  0
   -3.7860    1.3427    0.5501 H   0  0  0  0  0  0  0  0  0  0  0  0
   -2.3047    2.2856    0.3566 H   0  0  0  0  0  0  0  0  0  0  0  0
   -2.4361    1.1082    1.6596 H   0  0  0  0  0  0  0  0  0  0  0  0
   -2.2099   -1.9777   -0.7200 H   0  0  0  0  0  0  0  0  0  0  0  0
   -3.9110   -0.9201    1.6063 H   0  0  0  0  0  0  0  0  0  0  0  0
   -3.7295   -2.6559    0.9956 H   0  0  0  0  0  0  0  0  0  0  0  0
    1.8081   -1.2689    4.2377 H   0  0  0  0  0  0  0  0  0  0  0  0
    3.2204   -0.5080    2.3751 H   0  0  0  0  0  0  0  0  0  0  0  0
    3.8473   -1.7161   -0.2491 H   0  0  0  0  0  0  0  0  0  0  0  0
    5.3372   -0.7712   -0.4094 H   0  0  0  0  0  0  0  0  0  0  0  0
    4.1357   -0.7049   -1.7075 H   0  0  0  0  0  0  0  0  0  0  0  0
    3.1267    1.5375   -2.7639 H   0  0  0  0  0  0  0  0  0  0  0  0
    0.8010    2.0121   -4.1804 H   0  0  0  0  0  0  0  0  0  0  0  0
  1  2  1  0
  2  3  1  0
  2  4  1  0
  4  5  2  0
  2  6  1  0
  6  7  2  0
  7  8  1  0
  8  9  2  0
  9 10  1  0
 10 11  2  0
 11 12  1  0
 12 13  1  0
 13 14  2  0
 13 15  1  0
 15 16  2  0
  9 17  1  0
 17 18  1  0
  8 19  1  0
 19 20  2  0
 20 21  1  0
 11  6  1  0
 21  7  1  0
 16 10  1  0
  1 22  1  0
  1 23  1  0
  1 24  1  0
  3 25  1  0
  3 26  1  0
  3 27  1  0
  4 28  1  0
  5 29  1  0
  5 30  1  0
 15 31  1  0
 16 32  1  0
 18 33  1  0
 18 34  1  0
 18 35  1  0
 19 36  1  0
 20 37  1  0
M  END
>  <Name>  (445) 
Furopinnarin

>  <PubChem ID>  (445) 
179399

>  <CDB ID>  (445) 
CDB0445

>  <Smiles>  (445) 
CC(C)(C=C)C1=C2C(=C(C3=C1OC(=O)C=C3)OC)C=CO2

>  <Chemical class>  (445) 
5,7-Dioxygenated Coumarins

>  <Natural source>  (445) 
Ruta pinnata

>  <Molecular Formula>  (445) 
C17H16O4

>  <InChI-Key>  (445) 
ZPLVEUIOSKJIDT-UHFFFAOYSA-N

>  <Total Molweight>  (445) 
284.31

>  <cLogP>  (445) 
3.7298

>  <cLogS>  (445) 
-4.916

>  <H-Acceptors>  (445) 
4

>  <H-Donors>  (445) 
0

>  <Rotatable Bonds>  (445) 
3

>  <Polar Surface Area>  (445) 
48.67

$$$$
CDB0446
     RDKit          3D

 41 43  0  0  0  0  0  0  0  0999 V2000
    5.3960    0.3514    0.2597 C   0  0  0  0  0  0  0  0  0  0  0  0
    4.1270   -0.4588    0.1434 C   0  0  0  0  0  0  0  0  0  0  0  0
    4.2124   -1.8001    0.0622 C   0  0  0  0  0  0  0  0  0  0  0  0
    2.8128    0.1238    0.1141 C   0  0  0  0  0  0  0  0  0  0  0  0
    2.4478    1.4612    0.1871 C   0  0  0  0  0  0  0  0  0  0  0  0
    1.0287    1.5447    0.1167 C   0  0  0  0  0  0  0  0  0  0  0  0
    0.5744    0.2359    0.0054 C   0  0  0  0  0  0  0  0  0  0  0  0
    1.6491   -0.6000    0.0020 O   0  0  0  0  0  0  0  0  0  0  0  0
   -0.7743   -0.1640   -0.0896 C   0  0  0  0  0  0  0  0  0  0  0  0
   -1.6677    0.9480   -0.0798 C   0  0  0  0  0  0  0  0  0  0  0  0
   -1.2749    2.2895    0.0331 C   0  0  0  0  0  0  0  0  0  0  0  0
    0.0880    2.5900    0.1354 C   0  0  0  0  0  0  0  0  0  0  0  0
    0.4762    3.9079    0.2466 O   0  0  0  0  0  0  0  0  0  0  0  0
   -2.2963    3.3334    0.0410 C   0  0  0  0  0  0  0  0  0  0  0  0
   -3.5904    3.0228   -0.0654 C   0  0  0  0  0  0  0  0  0  0  0  0
   -4.0490    1.6348   -0.1976 C   0  0  0  0  0  0  0  0  0  0  0  0
   -5.2401    1.3695   -0.3046 O   0  0  0  0  0  0  0  0  0  0  0  0
   -3.0604    0.6641   -0.1989 O   0  0  0  0  0  0  0  0  0  0  0  0
   -1.2775   -1.6172   -0.2178 C   0  0  0  0  0  0  0  0  0  0  0  0
   -0.1692   -2.6879   -0.0635 C   0  0  0  0  0  0  0  0  0  0  0  0
   -1.8564   -1.8116   -1.6409 C   0  0  0  0  0  0  0  0  0  0  0  0
   -2.2634   -1.9308    0.9134 C   0  0  0  0  0  0  0  0  0  0  0  0
   -3.5301   -2.3574    0.8046 C   0  0  0  0  0  0  0  0  0  0  0  0
    5.3914    0.9311    1.1888 H   0  0  0  0  0  0  0  0  0  0  0  0
    5.4804    1.0458   -0.5830 H   0  0  0  0  0  0  0  0  0  0  0  0
    6.2940   -0.2756    0.2642 H   0  0  0  0  0  0  0  0  0  0  0  0
    5.1699   -2.3115    0.0781 H   0  0  0  0  0  0  0  0  0  0  0  0
    3.3345   -2.4352   -0.0225 H   0  0  0  0  0  0  0  0  0  0  0  0
    3.1420    2.2839    0.2797 H   0  0  0  0  0  0  0  0  0  0  0  0
    1.4451    3.9353    0.3089 H   0  0  0  0  0  0  0  0  0  0  0  0
   -1.9812    4.3676    0.1361 H   0  0  0  0  0  0  0  0  0  0  0  0
   -4.3633    3.7810   -0.0616 H   0  0  0  0  0  0  0  0  0  0  0  0
   -0.5883   -3.7018   -0.1090 H   0  0  0  0  0  0  0  0  0  0  0  0
    0.5727   -2.6238   -0.8679 H   0  0  0  0  0  0  0  0  0  0  0  0
    0.3553   -2.6026    0.8960 H   0  0  0  0  0  0  0  0  0  0  0  0
   -2.7278   -1.1789   -1.8379 H   0  0  0  0  0  0  0  0  0  0  0  0
   -2.1675   -2.8498   -1.8088 H   0  0  0  0  0  0  0  0  0  0  0  0
   -1.1065   -1.5690   -2.4042 H   0  0  0  0  0  0  0  0  0  0  0  0
   -1.8719   -1.7863    1.9212 H   0  0  0  0  0  0  0  0  0  0  0  0
   -4.1286   -2.5387    1.6925 H   0  0  0  0  0  0  0  0  0  0  0  0
   -4.0128   -2.5205   -0.1529 H   0  0  0  0  0  0  0  0  0  0  0  0
  1  2  1  0
  2  3  2  0
  2  4  1  0
  4  5  2  0
  5  6  1  0
  6  7  1  0
  7  8  1  0
  7  9  2  0
  9 10  1  0
 10 11  2  0
 11 12  1  0
 12 13  1  0
 11 14  1  0
 14 15  2  0
 15 16  1  0
 16 17  2  0
 16 18  1  0
  9 19  1  0
 19 20  1  0
 19 21  1  0
 19 22  1  0
 22 23  2  0
  8  4  1  0
 12  6  2  0
 18 10  1  0
  1 24  1  0
  1 25  1  0
  1 26  1  0
  3 27  1  0
  3 28  1  0
  5 29  1  0
 13 30  1  0
 14 31  1  0
 15 32  1  0
 20 33  1  0
 20 34  1  0
 20 35  1  0
 21 36  1  0
 21 37  1  0
 21 38  1  0
 22 39  1  0
 23 40  1  0
 23 41  1  0
M  END
>  <Name>  (446) 
Hortiolone

>  <PubChem ID>  (446) 
101281776

>  <CDB ID>  (446) 
CDB0446

>  <Smiles>  (446) 
CC(=C)C1=CC2=C(O1)C(=C3C(=C2O)C=CC(=O)O3)C(C)(C)C=C

>  <Chemical class>  (446) 
5,7-Dioxygenated Coumarins

>  <Natural source>  (446) 
Hortia arborea

>  <Molecular Formula>  (446) 
C19H18O4

>  <InChI-Key>  (446) 
QSKJUCLGRZIBCC-UHFFFAOYSA-N

>  <Total Molweight>  (446) 
310.348

>  <cLogP>  (446) 
4.4314

>  <cLogS>  (446) 
-5.16

>  <H-Acceptors>  (446) 
4

>  <H-Donors>  (446) 
1

>  <Rotatable Bonds>  (446) 
3

>  <Polar Surface Area>  (446) 
59.67

$$$$
CDB0447
     RDKit          3D

 44 46  0  0  0  0  0  0  0  0999 V2000
    2.9553   -0.9006   -1.1481 C   0  0  0  0  0  0  0  0  0  0  0  0
    2.6344   -0.6763    0.3390 C   0  0  0  0  0  0  0  0  0  0  0  0
    3.1951    0.6342    0.8751 C   0  0  0  0  0  0  0  0  0  0  0  0
    2.4458    1.7872    0.2818 C   0  0  0  0  0  0  0  0  0  0  0  0
    2.9663    2.8855    0.0947 O   0  0  0  0  0  0  0  0  0  0  0  0
    1.0129    1.5872   -0.0152 C   0  0  0  0  0  0  0  0  0  0  0  0
    0.4508    0.3140    0.1696 C   0  0  0  0  0  0  0  0  0  0  0  0
    1.2197   -0.7545    0.5583 O   0  0  0  0  0  0  0  0  0  0  0  0
   -0.9409    0.0797   -0.0218 C   0  0  0  0  0  0  0  0  0  0  0  0
   -1.6944    1.1887   -0.4774 C   0  0  0  0  0  0  0  0  0  0  0  0
   -1.1372    2.4616   -0.6934 C   0  0  0  0  0  0  0  0  0  0  0  0
    0.2230    2.6565   -0.4496 C   0  0  0  0  0  0  0  0  0  0  0  0
    0.7444    3.9124   -0.6492 O   0  0  0  0  0  0  0  0  0  0  0  0
   -1.9950    3.5488   -1.1616 C   0  0  0  0  0  0  0  0  0  0  0  0
   -3.2926    3.3448   -1.3979 C   0  0  0  0  0  0  0  0  0  0  0  0
   -3.9143    2.0319   -1.2022 C   0  0  0  0  0  0  0  0  0  0  0  0
   -5.1041    1.8503   -1.4270 O   0  0  0  0  0  0  0  0  0  0  0  0
   -3.0752    1.0228   -0.7524 O   0  0  0  0  0  0  0  0  0  0  0  0
   -1.5371   -1.3369    0.2452 C   0  0  0  0  0  0  0  0  0  0  0  0
   -1.0150   -2.2946   -0.8570 C   0  0  0  0  0  0  0  0  0  0  0  0
   -3.0813   -1.4613    0.1995 C   0  0  0  0  0  0  0  0  0  0  0  0
   -1.2007   -1.7825    1.6778 C   0  0  0  0  0  0  0  0  0  0  0  0
   -0.5922   -2.9132    2.0657 C   0  0  0  0  0  0  0  0  0  0  0  0
    3.2400   -1.8380    1.1414 C   0  0  0  0  0  0  0  0  0  0  0  0
    2.5213   -0.1246   -1.7868 H   0  0  0  0  0  0  0  0  0  0  0  0
    4.0360   -0.9175   -1.3245 H   0  0  0  0  0  0  0  0  0  0  0  0
    2.5337   -1.8509   -1.4953 H   0  0  0  0  0  0  0  0  0  0  0  0
    3.0770    0.7059    1.9631 H   0  0  0  0  0  0  0  0  0  0  0  0
    4.2587    0.7320    0.6310 H   0  0  0  0  0  0  0  0  0  0  0  0
    1.7055    3.8932   -0.4350 H   0  0  0  0  0  0  0  0  0  0  0  0
   -1.5545    4.5296   -1.3141 H   0  0  0  0  0  0  0  0  0  0  0  0
   -3.9441    4.1367   -1.7453 H   0  0  0  0  0  0  0  0  0  0  0  0
   -1.2687   -1.9145   -1.8544 H   0  0  0  0  0  0  0  0  0  0  0  0
   -1.4610   -3.2927   -0.7670 H   0  0  0  0  0  0  0  0  0  0  0  0
    0.0705   -2.4282   -0.8319 H   0  0  0  0  0  0  0  0  0  0  0  0
   -3.4760   -1.3009   -0.8101 H   0  0  0  0  0  0  0  0  0  0  0  0
   -3.5725   -0.7629    0.8879 H   0  0  0  0  0  0  0  0  0  0  0  0
   -3.4066   -2.4698    0.4895 H   0  0  0  0  0  0  0  0  0  0  0  0
   -1.5089   -1.0883    2.4606 H   0  0  0  0  0  0  0  0  0  0  0  0
   -0.4161   -3.1091    3.1191 H   0  0  0  0  0  0  0  0  0  0  0  0
   -0.2507   -3.6632    1.3610 H   0  0  0  0  0  0  0  0  0  0  0  0
    2.8314   -2.7987    0.8065 H   0  0  0  0  0  0  0  0  0  0  0  0
    2.9873   -1.7519    2.2048 H   0  0  0  0  0  0  0  0  0  0  0  0
    4.3302   -1.8720    1.0455 H   0  0  0  0  0  0  0  0  0  0  0  0
  1  2  1  0
  2  3  1  0
  3  4  1  0
  4  5  2  0
  4  6  1  0
  6  7  1  0
  7  8  1  0
  7  9  2  0
  9 10  1  0
 10 11  2  0
 11 12  1  0
 12 13  1  0
 11 14  1  0
 14 15  2  0
 15 16  1  0
 16 17  2  0
 16 18  1  0
  9 19  1  0
 19 20  1  0
 19 21  1  0
 19 22  1  0
 22 23  2  0
  2 24  1  0
  8  2  1  0
 12  6  2  0
 18 10  1  0
  1 25  1  0
  1 26  1  0
  1 27  1  0
  3 28  1  0
  3 29  1  0
 13 30  1  0
 14 31  1  0
 15 32  1  0
 20 33  1  0
 20 34  1  0
 20 35  1  0
 21 36  1  0
 21 37  1  0
 21 38  1  0
 22 39  1  0
 23 40  1  0
 23 41  1  0
 24 42  1  0
 24 43  1  0
 24 44  1  0
M  END
>  <Name>  (447) 
Clausenidin

>  <PubChem ID>  (447) 
5315947

>  <CDB ID>  (447) 
CDB0447

>  <Smiles>  (447) 
CC1(CC(=O)C2=C(O1)C(=C3C(=C2O)C=CC(=O)O3)C(C)(C)C=C)C

>  <Chemical class>  (447) 
5,7-Dioxygenated Coumarins

>  <Natural source>  (447) 
Clausena heptaphylla

>  <Molecular Formula>  (447) 
C19H20O5

>  <InChI-Key>  (447) 
RDROOFQFFWIIDK-UHFFFAOYSA-N

>  <Total Molweight>  (447) 
328.363

>  <cLogP>  (447) 
3.6422

>  <cLogS>  (447) 
-4.748

>  <H-Acceptors>  (447) 
5

>  <H-Donors>  (447) 
1

>  <Rotatable Bonds>  (447) 
2

>  <Polar Surface Area>  (447) 
72.83

$$$$
CDB0448
     RDKit          3D

 84 90  0  0  0  0  0  0  0  0999 V2000
   -7.1266   -0.5878   -1.3007 C   0  0  0  0  0  0  0  0  0  0  0  0
   -6.1397   -0.1141   -0.5259 C   0  0  0  0  0  0  0  0  0  0  0  0
   -4.8282    0.5529   -0.9709 C   0  0  0  0  0  0  0  0  0  0  0  0
   -4.6441    0.6283   -2.5107 C   0  0  0  0  0  0  0  0  0  0  0  0
   -5.0116    2.0258   -0.5223 C   0  0  0  0  0  0  0  0  0  0  0  0
   -3.6194   -0.2269   -0.3703 C   0  0  0  0  0  0  0  0  0  0  0  0
   -3.4645   -1.6077   -0.6588 C   0  0  0  0  0  0  0  0  0  0  0  0
   -4.4179   -2.2302   -1.5124 O   0  0  0  0  0  0  0  0  0  0  0  0
   -4.3956   -3.5744   -1.8455 C   0  0  0  0  0  0  0  0  0  0  0  0
   -5.2226   -4.0878   -2.5898 O   0  0  0  0  0  0  0  0  0  0  0  0
   -3.3115   -4.3677   -1.2565 C   0  0  0  0  0  0  0  0  0  0  0  0
   -2.3943   -3.8208   -0.4558 C   0  0  0  0  0  0  0  0  0  0  0  0
   -2.4374   -2.3964   -0.1317 C   0  0  0  0  0  0  0  0  0  0  0  0
   -1.4885   -1.7940    0.6967 C   0  0  0  0  0  0  0  0  0  0  0  0
   -0.5362   -2.6149    1.2503 O   0  0  0  0  0  0  0  0  0  0  0  0
   -1.5305   -0.4125    0.9592 C   0  0  0  0  0  0  0  0  0  0  0  0
   -2.6317    0.3380    0.4750 C   0  0  0  0  0  0  0  0  0  0  0  0
   -2.7734    1.6566    0.8154 O   0  0  0  0  0  0  0  0  0  0  0  0
   -2.1562    2.1028    2.0295 C   0  0  0  0  0  0  0  0  0  0  0  0
   -2.3305    3.6301    2.0445 C   0  0  0  0  0  0  0  0  0  0  0  0
   -2.8800    1.5299    3.2584 C   0  0  0  0  0  0  0  0  0  0  0  0
   -0.6694    1.7752    1.9863 C   0  0  0  0  0  0  0  0  0  0  0  0
   -0.4332    0.2736    1.7654 C   0  0  2  0  0  0  0  0  0  0  0  0
    0.9842    0.0506    1.2161 C   0  0  0  0  0  0  0  0  0  0  0  0
    1.3648    0.4810   -0.0712 C   0  0  0  0  0  0  0  0  0  0  0  0
    0.3749    1.0564   -0.8280 O   0  0  0  0  0  0  0  0  0  0  0  0
    0.7282    1.7726   -2.0231 C   0  0  0  0  0  0  0  0  0  0  0  0
    0.8579    3.2591   -1.6735 C   0  0  0  0  0  0  0  0  0  0  0  0
   -0.4522    1.5729   -2.9810 C   0  0  0  0  0  0  0  0  0  0  0  0
    1.9906    1.2691   -2.6672 C   0  0  0  0  0  0  0  0  0  0  0  0
    2.8943    0.5541   -1.9918 C   0  0  0  0  0  0  0  0  0  0  0  0
    2.6726    0.2801   -0.5672 C   0  0  0  0  0  0  0  0  0  0  0  0
    3.6719   -0.2805    0.2665 C   0  0  0  0  0  0  0  0  0  0  0  0
    3.2577   -0.8008    1.5084 C   0  0  0  0  0  0  0  0  0  0  0  0
    1.9412   -0.6318    1.9756 C   0  0  0  0  0  0  0  0  0  0  0  0
    1.5249   -1.1713    3.1708 O   0  0  0  0  0  0  0  0  0  0  0  0
    4.2352   -1.5682    2.3146 C   0  0  0  0  0  0  0  0  0  0  0  0
    3.9244   -1.9530    3.4411 O   0  0  0  0  0  0  0  0  0  0  0  0
    5.5564   -1.8939    1.7433 C   0  0  0  0  0  0  0  0  0  0  0  0
    6.3969   -2.7861    2.4249 C   0  0  0  0  0  0  0  0  0  0  0  0
    7.6452   -3.1000    1.8985 C   0  0  0  0  0  0  0  0  0  0  0  0
    8.0480   -2.5288    0.6942 C   0  0  0  0  0  0  0  0  0  0  0  0
    7.2035   -1.6349    0.0230 C   0  0  0  0  0  0  0  0  0  0  0  0
    7.6248   -1.1256   -1.1790 O   0  0  0  0  0  0  0  0  0  0  0  0
    5.9405   -1.2801    0.5400 C   0  0  0  0  0  0  0  0  0  0  0  0
    5.0443   -0.3754   -0.0790 N   0  0  0  0  0  0  0  0  0  0  0  0
    5.6622    0.7807   -0.7454 C   0  0  0  0  0  0  0  0  0  0  0  0
   -8.0049   -1.0456   -0.8559 H   0  0  0  0  0  0  0  0  0  0  0  0
   -7.0854   -0.5552   -2.3840 H   0  0  0  0  0  0  0  0  0  0  0  0
   -6.2660   -0.2025    0.5538 H   0  0  0  0  0  0  0  0  0  0  0  0
   -3.6916    1.1084   -2.7642 H   0  0  0  0  0  0  0  0  0  0  0  0
   -4.6470   -0.3503   -2.9991 H   0  0  0  0  0  0  0  0  0  0  0  0
   -5.4395    1.2188   -2.9820 H   0  0  0  0  0  0  0  0  0  0  0  0
   -5.1384    2.1167    0.5632 H   0  0  0  0  0  0  0  0  0  0  0  0
   -4.1715    2.6564   -0.8358 H   0  0  0  0  0  0  0  0  0  0  0  0
   -5.9090    2.4684   -0.9759 H   0  0  0  0  0  0  0  0  0  0  0  0
   -3.2958   -5.4196   -1.5109 H   0  0  0  0  0  0  0  0  0  0  0  0
   -1.5973   -4.4244   -0.0338 H   0  0  0  0  0  0  0  0  0  0  0  0
   -0.0745   -2.1598    1.9769 H   0  0  0  0  0  0  0  0  0  0  0  0
   -3.3925    3.9017    2.0289 H   0  0  0  0  0  0  0  0  0  0  0  0
   -1.8695    4.0815    2.9292 H   0  0  0  0  0  0  0  0  0  0  0  0
   -1.8866    4.0844    1.1508 H   0  0  0  0  0  0  0  0  0  0  0  0
   -2.4535    1.9213    4.1880 H   0  0  0  0  0  0  0  0  0  0  0  0
   -2.8348    0.4375    3.3025 H   0  0  0  0  0  0  0  0  0  0  0  0
   -3.9455    1.7864    3.2309 H   0  0  0  0  0  0  0  0  0  0  0  0
   -0.2157    2.3604    1.1776 H   0  0  0  0  0  0  0  0  0  0  0  0
   -0.1623    2.1011    2.9043 H   0  0  0  0  0  0  0  0  0  0  0  0
   -0.5162   -0.1712    2.7659 H   0  0  0  0  0  0  0  0  0  0  0  0
   -0.0597    3.6292   -1.2012 H   0  0  0  0  0  0  0  0  0  0  0  0
    1.6643    3.4268   -0.9497 H   0  0  0  0  0  0  0  0  0  0  0  0
    1.0613    3.8702   -2.5597 H   0  0  0  0  0  0  0  0  0  0  0  0
   -1.3839    1.9274   -2.5251 H   0  0  0  0  0  0  0  0  0  0  0  0
   -0.6029    0.5093   -3.2023 H   0  0  0  0  0  0  0  0  0  0  0  0
   -0.3093    2.1061   -3.9272 H   0  0  0  0  0  0  0  0  0  0  0  0
    2.1566    1.4891   -3.7180 H   0  0  0  0  0  0  0  0  0  0  0  0
    3.7663    0.1473   -2.4884 H   0  0  0  0  0  0  0  0  0  0  0  0
    2.3128   -1.5676    3.6152 H   0  0  0  0  0  0  0  0  0  0  0  0
    6.0764   -3.2360    3.3623 H   0  0  0  0  0  0  0  0  0  0  0  0
    8.2985   -3.7931    2.4228 H   0  0  0  0  0  0  0  0  0  0  0  0
    9.0219   -2.7915    0.2906 H   0  0  0  0  0  0  0  0  0  0  0  0
    8.4452   -1.5731   -1.4439 H   0  0  0  0  0  0  0  0  0  0  0  0
    6.5888    1.0866   -0.2429 H   0  0  0  0  0  0  0  0  0  0  0  0
    5.8869    0.5585   -1.7935 H   0  0  0  0  0  0  0  0  0  0  0  0
    5.0250    1.6725   -0.7140 H   0  0  0  0  0  0  0  0  0  0  0  0
  1  2  2  0
  2  3  1  0
  3  4  1  0
  3  5  1  0
  3  6  1  0
  6  7  1  0
  7  8  1  0
  8  9  1  0
  9 10  2  0
  9 11  1  0
 11 12  2  0
 12 13  1  0
 13 14  1  0
 14 15  1  0
 14 16  2  0
 16 17  1  0
 17 18  1  0
 18 19  1  0
 19 20  1  0
 19 21  1  0
 19 22  1  0
 22 23  1  0
 23 24  1  0
 24 25  2  0
 25 26  1  0
 26 27  1  0
 27 28  1  0
 27 29  1  0
 27 30  1  0
 30 31  2  0
 31 32  1  0
 32 33  2  0
 33 34  1  0
 34 35  2  0
 35 36  1  0
 34 37  1  0
 37 38  2  0
 37 39  1  0
 39 40  2  0
 40 41  1  0
 41 42  2  0
 42 43  1  0
 43 44  1  0
 43 45  2  0
 45 46  1  0
 46 47  1  0
 17  6  2  0
 35 24  1  0
 45 39  1  0
 13  7  2  0
 23 16  1  0
 32 25  1  0
 46 33  1  0
  1 48  1  0
  1 49  1  0
  2 50  1  0
  4 51  1  0
  4 52  1  0
  4 53  1  0
  5 54  1  0
  5 55  1  0
  5 56  1  0
 11 57  1  0
 12 58  1  0
 15 59  1  0
 20 60  1  0
 20 61  1  0
 20 62  1  0
 21 63  1  0
 21 64  1  0
 21 65  1  0
 22 66  1  0
 22 67  1  0
 23 68  1  1
 28 69  1  0
 28 70  1  0
 28 71  1  0
 29 72  1  0
 29 73  1  0
 29 74  1  0
 30 75  1  0
 31 76  1  0
 36 77  1  0
 40 78  1  0
 41 79  1  0
 42 80  1  0
 44 81  1  0
 47 82  1  0
 47 83  1  0
 47 84  1  0
M  END
>  <Name>  (448) 
Neoacrimarine-D

>  <PubChem ID>  (448) 
102078537

>  <CDB ID>  (448) 
CDB0448

>  <Smiles>  (448) 
C=CC(C)(C)C1=C2OC(=O)C=CC2=C(O)C2=C1OC(C)(C)C[C@@H]2C1=C2OC(C)(C)C=CC2=C2C(=C1O)C(=O)C1=CC=CC(O)=C1N2C

>  <Chemical class>  (448) 
5,7-Dioxygenated Coumarins

>  <Natural source>  (448) 
Citrus hassaku

>  <Molecular Formula>  (448) 
C38H37NO8

>  <InChI-Key>  (448) 
BFIGFOVYMXCKHN-NRFANRHFSA-N

>  <Total Molweight>  (448) 
635.711

>  <cLogP>  (448) 
6.9335

>  <cLogS>  (448) 
-9.453

>  <H-Acceptors>  (448) 
9

>  <H-Donors>  (448) 
3

>  <Rotatable Bonds>  (448) 
3

>  <Polar Surface Area>  (448) 
125.76

$$$$
CDB0449
     RDKit          3D

 80 85  0  0  0  0  0  0  0  0999 V2000
   -5.7336    2.6307   -0.5614 C   0  0  0  0  0  0  0  0  0  0  0  0
   -6.0622    1.3417   -0.3821 C   0  0  0  0  0  0  0  0  0  0  0  0
   -5.1424    0.2612    0.2083 C   0  0  0  0  0  0  0  0  0  0  0  0
   -5.8264   -1.1278    0.0968 C   0  0  0  0  0  0  0  0  0  0  0  0
   -5.1061    0.5747    1.7261 C   0  0  0  0  0  0  0  0  0  0  0  0
   -3.7847    0.1813   -0.5541 C   0  0  0  0  0  0  0  0  0  0  0  0
   -3.7815    0.0685   -1.9724 C   0  0  0  0  0  0  0  0  0  0  0  0
   -5.0394    0.0177   -2.6399 O   0  0  0  0  0  0  0  0  0  0  0  0
   -5.1833   -0.0782   -4.0122 C   0  0  0  0  0  0  0  0  0  0  0  0
   -6.2736   -0.0928   -4.5694 O   0  0  0  0  0  0  0  0  0  0  0  0
   -3.9385   -0.1857   -4.7806 C   0  0  0  0  0  0  0  0  0  0  0  0
   -2.7383   -0.1489   -4.1959 C   0  0  0  0  0  0  0  0  0  0  0  0
   -2.6172    0.0119   -2.7472 C   0  0  0  0  0  0  0  0  0  0  0  0
   -1.3926    0.0743   -2.0825 C   0  0  0  0  0  0  0  0  0  0  0  0
   -0.2060    0.1017   -2.7733 O   0  0  0  0  0  0  0  0  0  0  0  0
   -1.3213    0.1105   -0.6758 C   0  0  0  0  0  0  0  0  0  0  0  0
   -2.5146    0.1782    0.0764 C   0  0  0  0  0  0  0  0  0  0  0  0
   -2.5053    0.2760    1.4368 O   0  0  0  0  0  0  0  0  0  0  0  0
   -1.2993    0.1149    2.1852 C   0  0  0  0  0  0  0  0  0  0  0  0
   -1.1875   -1.3400    2.6495 C   0  0  0  0  0  0  0  0  0  0  0  0
   -1.4816    0.9853    3.4443 C   0  0  0  0  0  0  0  0  0  0  0  0
   -0.0725    0.6255    1.4335 C   0  0  0  0  0  0  0  0  0  0  0  0
    0.0379    0.0929    0.0010 C   0  0  1  0  0  0  0  0  0  0  0  0
    0.9128   -1.1743   -0.1085 C   0  0  0  0  0  0  0  0  0  0  0  0
    2.3269   -1.0518    0.0443 C   0  0  0  0  0  0  0  0  0  0  0  0
    2.9491    0.1879    0.2846 N   0  0  0  0  0  0  0  0  0  0  0  0
    4.3317    0.3770    0.4551 C   0  0  0  0  0  0  0  0  0  0  0  0
    5.1965   -0.7146    0.3820 C   0  0  0  0  0  0  0  0  0  0  0  0
    6.5709   -0.5475    0.5531 C   0  0  0  0  0  0  0  0  0  0  0  0
    7.0892    0.7244    0.8148 C   0  0  0  0  0  0  0  0  0  0  0  0
    6.2428    1.8382    0.8986 C   0  0  0  0  0  0  0  0  0  0  0  0
    6.6730    3.1047    1.1934 O   0  0  0  0  0  0  0  0  0  0  0  0
    8.0367    3.2738    1.5590 C   0  0  0  0  0  0  0  0  0  0  0  0
    4.8610    1.6608    0.6863 C   0  0  0  0  0  0  0  0  0  0  0  0
    3.9247    2.6717    0.7504 O   0  0  0  0  0  0  0  0  0  0  0  0
    4.2614    3.8237   -0.0204 C   0  0  0  0  0  0  0  0  0  0  0  0
    4.6207   -2.0502    0.1184 C   0  0  0  0  0  0  0  0  0  0  0  0
    5.3488   -3.0382    0.0387 O   0  0  0  0  0  0  0  0  0  0  0  0
    3.1504   -2.1969   -0.0503 C   0  0  0  0  0  0  0  0  0  0  0  0
    2.5943   -3.4520   -0.2909 C   0  0  0  0  0  0  0  0  0  0  0  0
    3.3356   -4.6000   -0.3818 O   0  0  0  0  0  0  0  0  0  0  0  0
    1.2235   -3.5861   -0.4466 C   0  0  0  0  0  0  0  0  0  0  0  0
    0.3856   -2.4647   -0.3758 C   0  0  0  0  0  0  0  0  0  0  0  0
   -0.9735   -2.6008   -0.4954 O   0  0  0  0  0  0  0  0  0  0  0  0
   -1.4310   -3.5940   -1.4075 C   0  0  0  0  0  0  0  0  0  0  0  0
   -6.4458    3.3298   -0.9880 H   0  0  0  0  0  0  0  0  0  0  0  0
   -4.7541    3.0110   -0.2888 H   0  0  0  0  0  0  0  0  0  0  0  0
   -7.0631    1.0257   -0.6735 H   0  0  0  0  0  0  0  0  0  0  0  0
   -6.0583   -1.4122   -0.9343 H   0  0  0  0  0  0  0  0  0  0  0  0
   -5.1838   -1.9138    0.5126 H   0  0  0  0  0  0  0  0  0  0  0  0
   -6.7744   -1.1513    0.6487 H   0  0  0  0  0  0  0  0  0  0  0  0
   -6.1202    0.6900    2.1323 H   0  0  0  0  0  0  0  0  0  0  0  0
   -4.5727    1.5077    1.9436 H   0  0  0  0  0  0  0  0  0  0  0  0
   -4.6447   -0.2364    2.3011 H   0  0  0  0  0  0  0  0  0  0  0  0
   -4.0534   -0.3145   -5.8498 H   0  0  0  0  0  0  0  0  0  0  0  0
   -1.8495   -0.2761   -4.8019 H   0  0  0  0  0  0  0  0  0  0  0  0
   -0.3513    0.5328   -3.6300 H   0  0  0  0  0  0  0  0  0  0  0  0
   -2.0010   -1.5885    3.3421 H   0  0  0  0  0  0  0  0  0  0  0  0
   -1.2954   -2.0448    1.8273 H   0  0  0  0  0  0  0  0  0  0  0  0
   -0.2379   -1.5306    3.1597 H   0  0  0  0  0  0  0  0  0  0  0  0
   -0.6144    0.9209    4.1099 H   0  0  0  0  0  0  0  0  0  0  0  0
   -1.6362    2.0366    3.1742 H   0  0  0  0  0  0  0  0  0  0  0  0
   -2.3740    0.6835    4.0054 H   0  0  0  0  0  0  0  0  0  0  0  0
   -0.1622    1.7196    1.3505 H   0  0  0  0  0  0  0  0  0  0  0  0
    0.8364    0.4438    2.0191 H   0  0  0  0  0  0  0  0  0  0  0  0
    0.5953    0.8693   -0.5447 H   0  0  0  0  0  0  0  0  0  0  0  0
    2.4071    1.0391    0.3683 H   0  0  0  0  0  0  0  0  0  0  0  0
    7.2391   -1.4042    0.4933 H   0  0  0  0  0  0  0  0  0  0  0  0
    8.1626    0.8082    0.9541 H   0  0  0  0  0  0  0  0  0  0  0  0
    8.1830    4.3254    1.8238 H   0  0  0  0  0  0  0  0  0  0  0  0
    8.2904    2.6714    2.4376 H   0  0  0  0  0  0  0  0  0  0  0  0
    8.6993    3.0483    0.7172 H   0  0  0  0  0  0  0  0  0  0  0  0
    3.3258    4.2683   -0.3741 H   0  0  0  0  0  0  0  0  0  0  0  0
    4.7606    4.5667    0.6080 H   0  0  0  0  0  0  0  0  0  0  0  0
    4.8673    3.5836   -0.9016 H   0  0  0  0  0  0  0  0  0  0  0  0
    4.2807   -4.3557   -0.2520 H   0  0  0  0  0  0  0  0  0  0  0  0
    0.8245   -4.5831   -0.6039 H   0  0  0  0  0  0  0  0  0  0  0  0
   -0.8631   -3.5800   -2.3442 H   0  0  0  0  0  0  0  0  0  0  0  0
   -1.4030   -4.5850   -0.9445 H   0  0  0  0  0  0  0  0  0  0  0  0
   -2.4751   -3.3697   -1.6469 H   0  0  0  0  0  0  0  0  0  0  0  0
  1  2  2  0
  2  3  1  0
  3  4  1  0
  3  5  1  0
  3  6  1  0
  6  7  1  0
  7  8  1  0
  8  9  1  0
  9 10  2  0
  9 11  1  0
 11 12  2  0
 12 13  1  0
 13 14  1  0
 14 15  1  0
 14 16  2  0
 16 17  1  0
 17 18  1  0
 18 19  1  0
 19 20  1  0
 19 21  1  0
 19 22  1  0
 22 23  1  0
 23 24  1  0
 24 25  1  0
 25 26  1  0
 26 27  1  0
 27 28  2  0
 28 29  1  0
 29 30  2  0
 30 31  1  0
 31 32  1  0
 32 33  1  0
 31 34  2  0
 34 35  1  0
 35 36  1  0
 28 37  1  0
 37 38  2  0
 37 39  1  0
 39 40  1  0
 40 41  1  0
 40 42  2  0
 42 43  1  0
 43 44  1  0
 44 45  1  0
 17  6  2  0
 43 24  2  0
 13  7  2  0
 23 16  1  0
 39 25  2  0
 34 27  1  0
  1 46  1  0
  1 47  1  0
  2 48  1  0
  4 49  1  0
  4 50  1  0
  4 51  1  0
  5 52  1  0
  5 53  1  0
  5 54  1  0
 11 55  1  0
 12 56  1  0
 15 57  1  0
 20 58  1  0
 20 59  1  0
 20 60  1  0
 21 61  1  0
 21 62  1  0
 21 63  1  0
 22 64  1  0
 22 65  1  0
 23 66  1  6
 26 67  1  0
 29 68  1  0
 30 69  1  0
 33 70  1  0
 33 71  1  0
 33 72  1  0
 36 73  1  0
 36 74  1  0
 36 75  1  0
 41 76  1  0
 42 77  1  0
 45 78  1  0
 45 79  1  0
 45 80  1  0
M  END
>  <Name>  (449) 
Neoacrimarine-E

>  <PubChem ID>  (449) 
102149716

>  <CDB ID>  (449) 
CDB0449

>  <Smiles>  (449) 
C=CC(C)(C)C1=C2OC(=O)C=CC2=C(O)C2=C1OC(C)(C)C[C@H]2C1=C2NC3=C(C=CC(OC)=C3OC)C(=O)C2=C(O)C=C1OC

>  <Chemical class>  (449) 
5,7-Dioxygenated Coumarins

>  <Natural source>  (449) 
Citrus paradisi x C. tangerina

>  <Molecular Formula>  (449) 
C35H35NO9

>  <InChI-Key>  (449) 
XFTQVQSYVLDGDM-SFHVURJKSA-N

>  <Total Molweight>  (449) 
613.661

>  <cLogP>  (449) 
5.9764

>  <cLogS>  (449) 
-8.066

>  <H-Acceptors>  (449) 
10

>  <H-Donors>  (449) 
3

>  <Rotatable Bonds>  (449) 
6

>  <Polar Surface Area>  (449) 
132.78

$$$$
CDB0450
     RDKit          3D

 43 45  0  0  0  0  0  0  0  0999 V2000
   -4.8339    0.9665   -0.9345 C   0  0  0  0  0  0  0  0  0  0  0  0
   -3.7507    0.4292    0.0091 C   0  0  0  0  0  0  0  0  0  0  0  0
   -3.3006    1.5336    0.9300 C   0  0  0  0  0  0  0  0  0  0  0  0
   -2.0122    1.7708    1.1914 C   0  0  0  0  0  0  0  0  0  0  0  0
   -1.0023    0.9037    0.5796 C   0  0  0  0  0  0  0  0  0  0  0  0
   -1.4049    0.0336   -0.4408 C   0  0  0  0  0  0  0  0  0  0  0  0
   -2.7110   -0.0820   -0.8471 O   0  0  0  0  0  0  0  0  0  0  0  0
   -0.4577   -0.7435   -1.1159 C   0  0  0  0  0  0  0  0  0  0  0  0
    0.8910   -0.6389   -0.7466 C   0  0  0  0  0  0  0  0  0  0  0  0
    1.3617    0.2201    0.2808 C   0  0  0  0  0  0  0  0  0  0  0  0
    0.3641    0.9581    0.9511 C   0  0  0  0  0  0  0  0  0  0  0  0
    0.7165    1.7391    2.0213 O   0  0  0  0  0  0  0  0  0  0  0  0
    2.8800    0.2808    0.6124 C   0  0  0  0  0  0  0  0  0  0  0  0
    3.2818   -1.0624    1.2745 C   0  0  0  0  0  0  0  0  0  0  0  0
    3.3276    1.3827    1.6064 C   0  0  0  0  0  0  0  0  0  0  0  0
    3.6762    0.6183   -0.6586 C   0  0  0  0  0  0  0  0  0  0  0  0
    4.6795   -0.0793   -1.2114 C   0  0  0  0  0  0  0  0  0  0  0  0
    1.8396   -1.4517   -1.4285 O   0  0  0  0  0  0  0  0  0  0  0  0
    1.5150   -2.3293   -2.4496 C   0  0  0  0  0  0  0  0  0  0  0  0
    2.3477   -3.0239   -3.0196 O   0  0  0  0  0  0  0  0  0  0  0  0
    0.0959   -2.3935   -2.8165 C   0  0  0  0  0  0  0  0  0  0  0  0
   -0.8285   -1.6573   -2.1956 C   0  0  0  0  0  0  0  0  0  0  0  0
   -4.3121   -0.7431    0.8214 C   0  0  0  0  0  0  0  0  0  0  0  0
   -4.4430    1.7829   -1.5541 H   0  0  0  0  0  0  0  0  0  0  0  0
   -5.1682    0.1866   -1.6290 H   0  0  0  0  0  0  0  0  0  0  0  0
   -5.7081    1.3374   -0.3882 H   0  0  0  0  0  0  0  0  0  0  0  0
   -4.0630    2.1561    1.3911 H   0  0  0  0  0  0  0  0  0  0  0  0
   -1.7173    2.5991    1.8243 H   0  0  0  0  0  0  0  0  0  0  0  0
   -0.0028    1.7081    2.6738 H   0  0  0  0  0  0  0  0  0  0  0  0
    3.1464   -1.9246    0.6141 H   0  0  0  0  0  0  0  0  0  0  0  0
    4.3336   -1.0584    1.5855 H   0  0  0  0  0  0  0  0  0  0  0  0
    2.6785   -1.2491    2.1717 H   0  0  0  0  0  0  0  0  0  0  0  0
    3.0154    2.3827    1.2817 H   0  0  0  0  0  0  0  0  0  0  0  0
    4.4215    1.4086    1.7033 H   0  0  0  0  0  0  0  0  0  0  0  0
    2.9429    1.2046    2.6170 H   0  0  0  0  0  0  0  0  0  0  0  0
    3.3784    1.5430   -1.1549 H   0  0  0  0  0  0  0  0  0  0  0  0
    5.0398   -1.0142   -0.7964 H   0  0  0  0  0  0  0  0  0  0  0  0
    5.1581    0.2710   -2.1210 H   0  0  0  0  0  0  0  0  0  0  0  0
   -0.1577   -3.0746   -3.6191 H   0  0  0  0  0  0  0  0  0  0  0  0
   -1.8714   -1.7246   -2.4879 H   0  0  0  0  0  0  0  0  0  0  0  0
   -4.6419   -1.5527    0.1598 H   0  0  0  0  0  0  0  0  0  0  0  0
   -5.1601   -0.4390    1.4449 H   0  0  0  0  0  0  0  0  0  0  0  0
   -3.5442   -1.1742    1.4748 H   0  0  0  0  0  0  0  0  0  0  0  0
  1  2  1  0
  2  3  1  0
  3  4  2  0
  4  5  1  0
  5  6  1  0
  6  7  1  0
  6  8  2  0
  8  9  1  0
  9 10  2  0
 10 11  1  0
 11 12  1  0
 10 13  1  0
 13 14  1  0
 13 15  1  0
 13 16  1  0
 16 17  2  0
  9 18  1  0
 18 19  1  0
 19 20  2  0
 19 21  1  0
 21 22  2  0
  2 23  1  0
  7  2  1  0
 11  5  2  0
 22  8  1  0
  1 24  1  0
  1 25  1  0
  1 26  1  0
  3 27  1  0
  4 28  1  0
 12 29  1  0
 14 30  1  0
 14 31  1  0
 14 32  1  0
 15 33  1  0
 15 34  1  0
 15 35  1  0
 16 36  1  0
 17 37  1  0
 17 38  1  0
 21 39  1  0
 22 40  1  0
 23 41  1  0
 23 42  1  0
 23 43  1  0
M  END
>  <Name>  (450) 
Nordentatin

>  <PubChem ID>  (450) 
5320206

>  <CDB ID>  (450) 
CDB0450

>  <Smiles>  (450) 
CC1(C=CC2=C(O1)C3=C(C(=C2O)C(C)(C)C=C)OC(=O)C=C3)C

>  <Chemical class>  (450) 
5,7-Dioxygenated Coumarins

>  <Natural source>  (450) 
Clausena dentata

>  <Molecular Formula>  (450) 
C19H20O4

>  <InChI-Key>  (450) 
FREXEHTVBRSRGJ-UHFFFAOYSA-N

>  <Total Molweight>  (450) 
312.364

>  <cLogP>  (450) 
4.0292

>  <cLogS>  (450) 
-4.702

>  <H-Acceptors>  (450) 
4

>  <H-Donors>  (450) 
1

>  <Rotatable Bonds>  (450) 
2

>  <Polar Surface Area>  (450) 
55.76

$$$$
CDB0451
     RDKit          3D

 46 48  0  0  0  0  0  0  0  0999 V2000
    1.7046    3.5062    0.8697 C   0  0  0  0  0  0  0  0  0  0  0  0
    0.6132    2.5030    1.2618 C   0  0  0  0  0  0  0  0  0  0  0  0
   -0.7339    3.0718    0.9099 C   0  0  0  0  0  0  0  0  0  0  0  0
   -1.6506    2.3788    0.2321 C   0  0  0  0  0  0  0  0  0  0  0  0
   -1.3406    1.0079   -0.1685 C   0  0  0  0  0  0  0  0  0  0  0  0
   -2.3165    0.1852   -0.7500 C   0  0  0  0  0  0  0  0  0  0  0  0
   -1.9823   -1.0860   -1.2307 C   0  0  0  0  0  0  0  0  0  0  0  0
   -0.6679   -1.5523   -1.0606 C   0  0  0  0  0  0  0  0  0  0  0  0
    0.3519   -0.7849   -0.4512 C   0  0  0  0  0  0  0  0  0  0  0  0
   -0.0328    0.5129   -0.0009 C   0  0  0  0  0  0  0  0  0  0  0  0
    0.9442    1.2801    0.5828 O   0  0  0  0  0  0  0  0  0  0  0  0
    1.8197   -1.2743   -0.2495 C   0  0  0  0  0  0  0  0  0  0  0  0
    2.0548   -1.4733    1.2713 C   0  0  0  0  0  0  0  0  0  0  0  0
    2.1977   -2.6304   -0.8979 C   0  0  0  0  0  0  0  0  0  0  0  0
    2.7969   -0.2918   -0.9150 C   0  0  0  0  0  0  0  0  0  0  0  0
    3.8622    0.3084   -0.3636 C   0  0  0  0  0  0  0  0  0  0  0  0
   -0.3728   -2.8630   -1.5145 O   0  0  0  0  0  0  0  0  0  0  0  0
   -1.2817   -3.7018   -2.1402 C   0  0  0  0  0  0  0  0  0  0  0  0
   -0.9944   -4.8333   -2.5095 O   0  0  0  0  0  0  0  0  0  0  0  0
   -2.6262   -3.1542   -2.3421 C   0  0  0  0  0  0  0  0  0  0  0  0
   -2.9572   -1.9329   -1.9181 C   0  0  0  0  0  0  0  0  0  0  0  0
   -3.6052    0.6492   -0.9057 O   0  0  0  0  0  0  0  0  0  0  0  0
   -4.3801    0.3493    0.2596 C   0  0  0  0  0  0  0  0  0  0  0  0
    0.6848    2.2270    2.7677 C   0  0  0  0  0  0  0  0  0  0  0  0
    2.6997    3.1165    1.1148 H   0  0  0  0  0  0  0  0  0  0  0  0
    1.7019    3.6833   -0.2127 H   0  0  0  0  0  0  0  0  0  0  0  0
    1.5795    4.4694    1.3766 H   0  0  0  0  0  0  0  0  0  0  0  0
   -0.9614    4.0842    1.2321 H   0  0  0  0  0  0  0  0  0  0  0  0
   -2.6129    2.8092   -0.0210 H   0  0  0  0  0  0  0  0  0  0  0  0
    3.0471   -1.8947    1.4739 H   0  0  0  0  0  0  0  0  0  0  0  0
    1.9822   -0.5442    1.8440 H   0  0  0  0  0  0  0  0  0  0  0  0
    1.3161   -2.1676    1.6908 H   0  0  0  0  0  0  0  0  0  0  0  0
    3.2637   -2.8547   -0.7547 H   0  0  0  0  0  0  0  0  0  0  0  0
    1.6531   -3.4667   -0.4450 H   0  0  0  0  0  0  0  0  0  0  0  0
    2.0213   -2.6352   -1.9804 H   0  0  0  0  0  0  0  0  0  0  0  0
    2.5841   -0.0699   -1.9614 H   0  0  0  0  0  0  0  0  0  0  0  0
    4.1482    0.1526    0.6703 H   0  0  0  0  0  0  0  0  0  0  0  0
    4.4727    0.9889   -0.9491 H   0  0  0  0  0  0  0  0  0  0  0  0
   -3.3309   -3.7950   -2.8569 H   0  0  0  0  0  0  0  0  0  0  0  0
   -3.9554   -1.5451   -2.0932 H   0  0  0  0  0  0  0  0  0  0  0  0
   -3.9824    0.8520    1.1474 H   0  0  0  0  0  0  0  0  0  0  0  0
   -5.3951    0.7198    0.0879 H   0  0  0  0  0  0  0  0  0  0  0  0
   -4.4388   -0.7306    0.4328 H   0  0  0  0  0  0  0  0  0  0  0  0
    0.5051    3.1316    3.3590 H   0  0  0  0  0  0  0  0  0  0  0  0
   -0.0521    1.4708    3.0638 H   0  0  0  0  0  0  0  0  0  0  0  0
    1.6662    1.8240    3.0440 H   0  0  0  0  0  0  0  0  0  0  0  0
  1  2  1  0
  2  3  1  0
  3  4  2  0
  4  5  1  0
  5  6  1  0
  6  7  2  0
  7  8  1  0
  8  9  2  0
  9 10  1  0
 10 11  1  0
  9 12  1  0
 12 13  1  0
 12 14  1  0
 12 15  1  0
 15 16  2  0
  8 17  1  0
 17 18  1  0
 18 19  2  0
 18 20  1  0
 20 21  2  0
  6 22  1  0
 22 23  1  0
  2 24  1  0
 11  2  1  0
 10  5  2  0
 21  7  1  0
  1 25  1  0
  1 26  1  0
  1 27  1  0
  3 28  1  0
  4 29  1  0
 13 30  1  0
 13 31  1  0
 13 32  1  0
 14 33  1  0
 14 34  1  0
 14 35  1  0
 15 36  1  0
 16 37  1  0
 16 38  1  0
 20 39  1  0
 21 40  1  0
 23 41  1  0
 23 42  1  0
 23 43  1  0
 24 44  1  0
 24 45  1  0
 24 46  1  0
M  END
>  <Name>  (451) 
Dentatin (Poncitrin)

>  <PubChem ID>  (451) 
342801

>  <CDB ID>  (451) 
CDB0451

>  <Smiles>  (451) 
CC1(C=CC2=C(C3=C(C(=C2O1)C(C)(C)C=C)OC(=O)C=C3)OC)C

>  <Chemical class>  (451) 
5,7-Dioxygenated Coumarins

>  <Natural source>  (451) 
Clausena dentata, Poncirus trifohata

>  <Molecular Formula>  (451) 
C20H22O4

>  <InChI-Key>  (451) 
QBFYQVZGIDUNIY-UHFFFAOYSA-N

>  <Total Molweight>  (451) 
326.391

>  <cLogP>  (451) 
4.3049

>  <cLogS>  (451) 
-5.016

>  <H-Acceptors>  (451) 
4

>  <H-Donors>  (451) 
0

>  <Rotatable Bonds>  (451) 
3

>  <Polar Surface Area>  (451) 
44.76

$$$$
CDB0452
     RDKit          3D

 56 58  0  0  0  0  0  0  0  0999 V2000
   -1.9548    2.5882    1.9212 C   0  0  0  0  0  0  0  0  0  0  0  0
   -1.9635    2.6416    0.3892 C   0  0  0  0  0  0  0  0  0  0  0  0
   -0.6984    3.2730   -0.1225 C   0  0  0  0  0  0  0  0  0  0  0  0
    0.3005    2.5419   -0.6217 C   0  0  0  0  0  0  0  0  0  0  0  0
    0.1657    1.0846   -0.6345 C   0  0  0  0  0  0  0  0  0  0  0  0
    1.2656    0.2604   -0.9292 C   0  0  0  0  0  0  0  0  0  0  0  0
    1.0777   -1.1097   -1.1343 C   0  0  0  0  0  0  0  0  0  0  0  0
   -0.1937   -1.6515   -0.8978 C   0  0  0  0  0  0  0  0  0  0  0  0
   -1.3170   -0.8835   -0.4883 C   0  0  0  0  0  0  0  0  0  0  0  0
   -1.1028    0.5100   -0.3907 C   0  0  0  0  0  0  0  0  0  0  0  0
   -2.1804    1.3089   -0.1118 O   0  0  0  0  0  0  0  0  0  0  0  0
   -2.6781   -1.5830   -0.2119 C   0  0  0  0  0  0  0  0  0  0  0  0
   -3.2503   -2.0661   -1.5702 C   0  0  0  0  0  0  0  0  0  0  0  0
   -3.8023   -0.7310    0.4302 C   0  0  0  0  0  0  0  0  0  0  0  0
   -2.5150   -2.7803    0.7374 C   0  0  0  0  0  0  0  0  0  0  0  0
   -1.9454   -2.7401    1.9523 C   0  0  0  0  0  0  0  0  0  0  0  0
   -0.3733   -3.0537   -1.0745 O   0  0  0  0  0  0  0  0  0  0  0  0
    0.6341   -3.9192   -1.4651 C   0  0  0  0  0  0  0  0  0  0  0  0
    0.4654   -5.1269   -1.5796 O   0  0  0  0  0  0  0  0  0  0  0  0
    1.9312   -3.3024   -1.7601 C   0  0  0  0  0  0  0  0  0  0  0  0
    2.1389   -1.9921   -1.6123 C   0  0  0  0  0  0  0  0  0  0  0  0
    2.5093    0.8213   -1.0878 O   0  0  0  0  0  0  0  0  0  0  0  0
    3.3805    0.8514    0.0787 C   0  0  0  0  0  0  0  0  0  0  0  0
    3.7985    2.3228    0.2643 C   0  0  0  0  0  0  0  0  0  0  0  0
    2.7696    0.3659    1.4118 C   0  0  0  0  0  0  0  0  0  0  0  0
    4.6363    0.0922   -0.3296 C   0  0  0  0  0  0  0  0  0  0  0  0
    5.2366   -0.9250    0.3057 C   0  0  0  0  0  0  0  0  0  0  0  0
   -3.1694    3.4597   -0.0891 C   0  0  0  0  0  0  0  0  0  0  0  0
   -2.8767    2.1321    2.3002 H   0  0  0  0  0  0  0  0  0  0  0  0
   -1.1303    1.9674    2.2916 H   0  0  0  0  0  0  0  0  0  0  0  0
   -1.8565    3.5858    2.3632 H   0  0  0  0  0  0  0  0  0  0  0  0
   -0.6016    4.3538   -0.0749 H   0  0  0  0  0  0  0  0  0  0  0  0
    1.2003    3.0018   -1.0121 H   0  0  0  0  0  0  0  0  0  0  0  0
   -3.3745   -1.2250   -2.2634 H   0  0  0  0  0  0  0  0  0  0  0  0
   -4.2332   -2.5369   -1.4441 H   0  0  0  0  0  0  0  0  0  0  0  0
   -2.6113   -2.8028   -2.0674 H   0  0  0  0  0  0  0  0  0  0  0  0
   -4.1689    0.0454   -0.2508 H   0  0  0  0  0  0  0  0  0  0  0  0
   -3.4776   -0.2545    1.3625 H   0  0  0  0  0  0  0  0  0  0  0  0
   -4.6767   -1.3481    0.6775 H   0  0  0  0  0  0  0  0  0  0  0  0
   -2.8968   -3.7382    0.3860 H   0  0  0  0  0  0  0  0  0  0  0  0
   -1.5447   -1.8192    2.3640 H   0  0  0  0  0  0  0  0  0  0  0  0
   -1.8682   -3.6382    2.5570 H   0  0  0  0  0  0  0  0  0  0  0  0
    2.7059   -3.9688   -2.1176 H   0  0  0  0  0  0  0  0  0  0  0  0
    3.0987   -1.5629   -1.8733 H   0  0  0  0  0  0  0  0  0  0  0  0
    4.5895    2.4300    1.0156 H   0  0  0  0  0  0  0  0  0  0  0  0
    4.1539    2.7591   -0.6771 H   0  0  0  0  0  0  0  0  0  0  0  0
    2.9503    2.9352    0.5878 H   0  0  0  0  0  0  0  0  0  0  0  0
    3.4848    0.4653    2.2370 H   0  0  0  0  0  0  0  0  0  0  0  0
    2.4612   -0.6841    1.3663 H   0  0  0  0  0  0  0  0  0  0  0  0
    1.8836    0.9499    1.6845 H   0  0  0  0  0  0  0  0  0  0  0  0
    5.0855    0.4307   -1.2640 H   0  0  0  0  0  0  0  0  0  0  0  0
    4.8648   -1.3383    1.2371 H   0  0  0  0  0  0  0  0  0  0  0  0
    6.1346   -1.3767   -0.1068 H   0  0  0  0  0  0  0  0  0  0  0  0
   -3.2180    3.4819   -1.1846 H   0  0  0  0  0  0  0  0  0  0  0  0
   -3.1359    4.4924    0.2751 H   0  0  0  0  0  0  0  0  0  0  0  0
   -4.1078    3.0056    0.2508 H   0  0  0  0  0  0  0  0  0  0  0  0
  1  2  1  0
  2  3  1  0
  3  4  2  0
  4  5  1  0
  5  6  1  0
  6  7  2  0
  7  8  1  0
  8  9  2  0
  9 10  1  0
 10 11  1  0
  9 12  1  0
 12 13  1  0
 12 14  1  0
 12 15  1  0
 15 16  2  0
  8 17  1  0
 17 18  1  0
 18 19  2  0
 18 20  1  0
 20 21  2  0
  6 22  1  0
 22 23  1  0
 23 24  1  0
 23 25  1  0
 23 26  1  0
 26 27  2  0
  2 28  1  0
 11  2  1  0
 10  5  2  0
 21  7  1  0
  1 29  1  0
  1 30  1  0
  1 31  1  0
  3 32  1  0
  4 33  1  0
 13 34  1  0
 13 35  1  0
 13 36  1  0
 14 37  1  0
 14 38  1  0
 14 39  1  0
 15 40  1  0
 16 41  1  0
 16 42  1  0
 20 43  1  0
 21 44  1  0
 24 45  1  0
 24 46  1  0
 24 47  1  0
 25 48  1  0
 25 49  1  0
 25 50  1  0
 26 51  1  0
 27 52  1  0
 27 53  1  0
 28 54  1  0
 28 55  1  0
 28 56  1  0
M  END
>  <Name>  (452) 
Ponfolin

>  <PubChem ID>  (452) 
174673

>  <CDB ID>  (452) 
CDB0452

>  <Smiles>  (452) 
CC1(C=CC2=C(C3=C(C(=C2O1)C(C)(C)C=C)OC(=O)C=C3)OC(C)(C)C=C)C

>  <Chemical class>  (452) 
5,7-Dioxygenated Coumarins

>  <Natural source>  (452) 
Poncirus trifohata

>  <Molecular Formula>  (452) 
C24H28O4

>  <InChI-Key>  (452) 
JUUQZEDESBYHJJ-UHFFFAOYSA-N

>  <Total Molweight>  (452) 
380.482

>  <cLogP>  (452) 
5.72

>  <cLogS>  (452) 
-6.012

>  <H-Acceptors>  (452) 
4

>  <H-Donors>  (452) 
0

>  <Rotatable Bonds>  (452) 
5

>  <Polar Surface Area>  (452) 
44.76

$$$$
CDB0453
     RDKit          3D

 44 47  0  0  0  0  0  0  0  0999 V2000
    4.3341    0.5711    1.4808 C   0  0  0  0  0  0  0  0  0  0  0  0
    3.8961   -0.1444    0.1980 C   0  0  0  0  0  0  0  0  0  0  0  0
    4.9972   -1.1124   -0.2525 C   0  0  0  0  0  0  0  0  0  0  0  0
    3.6365    0.8581   -0.8965 C   0  0  0  0  0  0  0  0  0  0  0  0
    2.4029    1.2014   -1.2775 C   0  0  0  0  0  0  0  0  0  0  0  0
    1.2620    0.6000   -0.5820 C   0  0  0  0  0  0  0  0  0  0  0  0
   -0.0676    1.0490   -0.7828 C   0  0  0  0  0  0  0  0  0  0  0  0
   -0.2575    2.1658   -1.5549 O   0  0  0  0  0  0  0  0  0  0  0  0
   -1.1858    0.4031   -0.2110 C   0  0  0  0  0  0  0  0  0  0  0  0
   -2.6690    0.8293   -0.4408 C   0  0  0  0  0  0  0  0  0  0  0  0
   -2.8894    2.0286   -1.4034 C   0  0  0  0  0  0  0  0  0  0  0  0
   -3.2843    1.2782    0.9088 C   0  0  0  0  0  0  0  0  0  0  0  0
   -3.4055   -0.3503   -1.0874 C   0  0  2  0  0  0  0  0  0  0  0  0
   -4.9080   -0.3574   -1.2992 C   0  0  0  0  0  0  0  0  0  0  0  0
   -4.2911   -1.1077   -0.2512 O   0  0  0  0  0  0  0  0  0  0  0  0
   -0.8771   -0.7076    0.6180 C   0  0  0  0  0  0  0  0  0  0  0  0
   -1.9500   -1.4041    1.2394 O   0  0  0  0  0  0  0  0  0  0  0  0
   -1.7879   -2.4895    2.0858 C   0  0  0  0  0  0  0  0  0  0  0  0
   -2.7231   -3.0566    2.6371 O   0  0  0  0  0  0  0  0  0  0  0  0
   -0.4063   -2.9325    2.3030 C   0  0  0  0  0  0  0  0  0  0  0  0
    0.6316   -2.3133    1.7368 C   0  0  0  0  0  0  0  0  0  0  0  0
    0.4297   -1.1569    0.8649 C   0  0  0  0  0  0  0  0  0  0  0  0
    1.5009   -0.4883    0.2640 C   0  0  0  0  0  0  0  0  0  0  0  0
    2.7606   -0.9717    0.5161 O   0  0  0  0  0  0  0  0  0  0  0  0
    3.5463    1.2391    1.8489 H   0  0  0  0  0  0  0  0  0  0  0  0
    4.5242   -0.1508    2.2837 H   0  0  0  0  0  0  0  0  0  0  0  0
    5.2419    1.1649    1.3276 H   0  0  0  0  0  0  0  0  0  0  0  0
    5.9364   -0.5930   -0.4730 H   0  0  0  0  0  0  0  0  0  0  0  0
    5.1943   -1.8657    0.5196 H   0  0  0  0  0  0  0  0  0  0  0  0
    4.6901   -1.6644   -1.1492 H   0  0  0  0  0  0  0  0  0  0  0  0
    4.4937    1.3101   -1.3887 H   0  0  0  0  0  0  0  0  0  0  0  0
    2.2475    1.8938   -2.0961 H   0  0  0  0  0  0  0  0  0  0  0  0
    0.4706    2.7850   -1.3776 H   0  0  0  0  0  0  0  0  0  0  0  0
   -3.9566    2.2515   -1.5247 H   0  0  0  0  0  0  0  0  0  0  0  0
   -2.5086    1.8166   -2.4092 H   0  0  0  0  0  0  0  0  0  0  0  0
   -2.4303    2.9486   -1.0249 H   0  0  0  0  0  0  0  0  0  0  0  0
   -2.6948    2.0887    1.3544 H   0  0  0  0  0  0  0  0  0  0  0  0
   -4.3073    1.6501    0.7783 H   0  0  0  0  0  0  0  0  0  0  0  0
   -3.3443    0.4774    1.6503 H   0  0  0  0  0  0  0  0  0  0  0  0
   -2.8122   -0.8786   -1.8255 H   0  0  0  0  0  0  0  0  0  0  0  0
   -5.3022   -0.9113   -2.1422 H   0  0  0  0  0  0  0  0  0  0  0  0
   -5.5016    0.4997   -1.0111 H   0  0  0  0  0  0  0  0  0  0  0  0
   -0.2787   -3.7898    2.9517 H   0  0  0  0  0  0  0  0  0  0  0  0
    1.6429   -2.6637    1.9153 H   0  0  0  0  0  0  0  0  0  0  0  0
  1  2  1  0
  2  3  1  0
  2  4  1  0
  4  5  2  0
  5  6  1  0
  6  7  2  0
  7  8  1  0
  7  9  1  0
  9 10  1  0
 10 11  1  0
 10 12  1  0
 10 13  1  0
 13 14  1  0
 14 15  1  0
  9 16  2  0
 16 17  1  0
 17 18  1  0
 18 19  2  0
 18 20  1  0
 20 21  2  0
 21 22  1  0
 22 23  2  0
 23 24  1  0
 24  2  1  0
 23  6  1  0
 15 13  1  0
 22 16  1  0
  1 25  1  0
  1 26  1  0
  1 27  1  0
  3 28  1  0
  3 29  1  0
  3 30  1  0
  4 31  1  0
  5 32  1  0
  8 33  1  0
 11 34  1  0
 11 35  1  0
 11 36  1  0
 12 37  1  0
 12 38  1  0
 12 39  1  0
 13 40  1  6
 14 41  1  0
 14 42  1  0
 20 43  1  0
 21 44  1  0
M  END
>  <Name>  (453) 
Oxanordentatin

>  <PubChem ID>  (453) 
101610321

>  <CDB ID>  (453) 
CDB0453

>  <Smiles>  (453) 
CC1(C)C=CC2=C(O)C(C(C)(C)[C@@H]3CO3)=C3OC(=O)C=CC3=C2O1

>  <Chemical class>  (453) 
5,7-Dioxygenated Coumarins

>  <Natural source>  (453) 
Citrus hassaku

>  <Molecular Formula>  (453) 
C19H20O5

>  <InChI-Key>  (453) 
UOCNOTHUBXSULD-LBPRGKRZSA-N

>  <Total Molweight>  (453) 
328.363

>  <cLogP>  (453) 
2.9698

>  <cLogS>  (453) 
-4.338

>  <H-Acceptors>  (453) 
5

>  <H-Donors>  (453) 
1

>  <Rotatable Bonds>  (453) 
2

>  <Polar Surface Area>  (453) 
68.29

$$$$
CDB0454
     RDKit          3D

 43 45  0  0  0  0  0  0  0  0999 V2000
    4.0923   -1.1565    1.8003 C   0  0  0  0  0  0  0  0  0  0  0  0
    3.4194   -0.6971    0.5328 C   0  0  0  0  0  0  0  0  0  0  0  0
    2.1342   -1.0200    0.2856 C   0  0  0  0  0  0  0  0  0  0  0  0
    1.2908   -0.6606   -0.9094 C   0  0  0  0  0  0  0  0  0  0  0  0
    0.1585    0.2765   -0.5461 C   0  0  0  0  0  0  0  0  0  0  0  0
    0.3406    1.6676   -0.5770 C   0  0  0  0  0  0  0  0  0  0  0  0
   -0.6733    2.5606   -0.2274 C   0  0  0  0  0  0  0  0  0  0  0  0
   -1.9138    2.0446    0.1715 C   0  0  0  0  0  0  0  0  0  0  0  0
   -2.1288    0.6561    0.2540 C   0  0  0  0  0  0  0  0  0  0  0  0
   -1.0913   -0.2156   -0.1249 C   0  0  0  0  0  0  0  0  0  0  0  0
   -1.2178   -1.5808   -0.0685 O   0  0  0  0  0  0  0  0  0  0  0  0
   -2.5342   -2.1541    0.0399 C   0  0  0  0  0  0  0  0  0  0  0  0
   -3.5586   -1.2364    0.6568 C   0  0  0  0  0  0  0  0  0  0  0  0
   -3.3700    0.0813    0.7727 C   0  0  0  0  0  0  0  0  0  0  0  0
   -2.3700   -3.3966    0.9240 C   0  0  0  0  0  0  0  0  0  0  0  0
   -2.9800   -2.5773   -1.3642 C   0  0  0  0  0  0  0  0  0  0  0  0
   -2.9085    2.9457    0.4694 O   0  0  0  0  0  0  0  0  0  0  0  0
   -0.3968    3.9924   -0.2950 C   0  0  0  0  0  0  0  0  0  0  0  0
    0.8062    4.4309   -0.6751 C   0  0  0  0  0  0  0  0  0  0  0  0
    1.8928    3.5126   -1.0447 C   0  0  0  0  0  0  0  0  0  0  0  0
    2.9881    3.9386   -1.3915 O   0  0  0  0  0  0  0  0  0  0  0  0
    1.6040    2.1583   -0.9862 O   0  0  0  0  0  0  0  0  0  0  0  0
    4.3000    0.1288   -0.3645 C   0  0  0  0  0  0  0  0  0  0  0  0
    4.4286   -0.2938    2.3848 H   0  0  0  0  0  0  0  0  0  0  0  0
    3.4248   -1.7480    2.4357 H   0  0  0  0  0  0  0  0  0  0  0  0
    4.9622   -1.7778    1.5637 H   0  0  0  0  0  0  0  0  0  0  0  0
    1.6045   -1.6260    1.0215 H   0  0  0  0  0  0  0  0  0  0  0  0
    1.8783   -0.2296   -1.7254 H   0  0  0  0  0  0  0  0  0  0  0  0
    0.8880   -1.5863   -1.3399 H   0  0  0  0  0  0  0  0  0  0  0  0
   -4.4833   -1.6778    1.0193 H   0  0  0  0  0  0  0  0  0  0  0  0
   -4.1114    0.7044    1.2565 H   0  0  0  0  0  0  0  0  0  0  0  0
   -1.6172   -4.0758    0.5066 H   0  0  0  0  0  0  0  0  0  0  0  0
   -2.0140   -3.1206    1.9241 H   0  0  0  0  0  0  0  0  0  0  0  0
   -3.3090   -3.9504    1.0336 H   0  0  0  0  0  0  0  0  0  0  0  0
   -2.2415   -3.2455   -1.8223 H   0  0  0  0  0  0  0  0  0  0  0  0
   -3.0636   -1.7098   -2.0296 H   0  0  0  0  0  0  0  0  0  0  0  0
   -3.9477   -3.0906   -1.3481 H   0  0  0  0  0  0  0  0  0  0  0  0
   -3.7664    2.5189    0.3136 H   0  0  0  0  0  0  0  0  0  0  0  0
   -1.1832    4.6886   -0.0227 H   0  0  0  0  0  0  0  0  0  0  0  0
    1.0390    5.4871   -0.7281 H   0  0  0  0  0  0  0  0  0  0  0  0
    5.1975   -0.4382   -0.6338 H   0  0  0  0  0  0  0  0  0  0  0  0
    4.6122    1.0416    0.1539 H   0  0  0  0  0  0  0  0  0  0  0  0
    3.8183    0.4304   -1.2960 H   0  0  0  0  0  0  0  0  0  0  0  0
  1  2  1  0
  2  3  2  3
  3  4  1  0
  4  5  1  0
  5  6  2  0
  6  7  1  0
  7  8  2  0
  8  9  1  0
  9 10  2  0
 10 11  1  0
 11 12  1  0
 12 13  1  0
 13 14  2  0
 12 15  1  0
 12 16  1  0
  8 17  1  0
  7 18  1  0
 18 19  2  0
 19 20  1  0
 20 21  2  0
 20 22  1  0
  2 23  1  0
 10  5  1  0
 22  6  1  0
 14  9  1  0
  1 24  1  0
  1 25  1  0
  1 26  1  0
  3 27  1  0
  4 28  1  0
  4 29  1  0
 13 30  1  0
 14 31  1  0
 15 32  1  0
 15 33  1  0
 15 34  1  0
 16 35  1  0
 16 36  1  0
 16 37  1  0
 17 38  1  0
 18 39  1  0
 19 40  1  0
 23 41  1  0
 23 42  1  0
 23 43  1  0
M  END
>  <Name>  (454) 
Trachyphyllin

>  <PubChem ID>  (454) 
71436449

>  <CDB ID>  (454) 
CDB0454

>  <Smiles>  (454) 
CC(=CCC1=C2C(=C(C3=C1OC(C=C3)(C)C)O)C=CC(=O)O2)C

>  <Chemical class>  (454) 
5,7-Dioxygenated Coumarins

>  <Natural source>  (454) 
Eriostemon trachyphyllus

>  <Molecular Formula>  (454) 
C19H20O4

>  <InChI-Key>  (454) 
NZJOMNMCRDSZDS-UHFFFAOYSA-N

>  <Total Molweight>  (454) 
312.364

>  <cLogP>  (454) 
4.2009

>  <cLogS>  (454) 
-4.272

>  <H-Acceptors>  (454) 
4

>  <H-Donors>  (454) 
1

>  <Rotatable Bonds>  (454) 
2

>  <Polar Surface Area>  (454) 
55.76

$$$$
CDB0455
     RDKit          3D

 56 58  0  0  0  0  0  0  0  0999 V2000
   -1.1650   -0.5389   -2.2769 C   0  0  0  0  0  0  0  0  0  0  0  0
   -1.2704   -0.9323   -0.7897 C   0  0  0  0  0  0  0  0  0  0  0  0
   -2.1545    0.0596    0.0003 C   0  0  0  0  0  0  0  0  0  0  0  0
   -1.5262    1.0833    0.6152 C   0  0  0  0  0  0  0  0  0  0  0  0
   -0.0731    1.2419    0.5466 C   0  0  0  0  0  0  0  0  0  0  0  0
    0.7084    0.1594    0.1242 C   0  0  0  0  0  0  0  0  0  0  0  0
    0.0939   -0.9955   -0.2814 O   0  0  0  0  0  0  0  0  0  0  0  0
    2.1309    0.1900    0.1554 C   0  0  0  0  0  0  0  0  0  0  0  0
    2.7066    1.4267    0.5288 C   0  0  0  0  0  0  0  0  0  0  0  0
    1.9469    2.5454    0.9161 C   0  0  0  0  0  0  0  0  0  0  0  0
    0.5550    2.4223    0.9618 C   0  0  0  0  0  0  0  0  0  0  0  0
   -0.2333    3.4547    1.4108 O   0  0  0  0  0  0  0  0  0  0  0  0
    2.6357    3.7990    1.2262 C   0  0  0  0  0  0  0  0  0  0  0  0
    3.9683    3.8736    1.1933 C   0  0  0  0  0  0  0  0  0  0  0  0
    4.8008    2.7190    0.8437 C   0  0  0  0  0  0  0  0  0  0  0  0
    6.0228    2.7942    0.8437 O   0  0  0  0  0  0  0  0  0  0  0  0
    4.1183    1.5619    0.5071 O   0  0  0  0  0  0  0  0  0  0  0  0
    2.9520   -1.0778   -0.2195 C   0  0  0  0  0  0  0  0  0  0  0  0
    2.7968   -1.3282   -1.7417 C   0  0  0  0  0  0  0  0  0  0  0  0
    4.4838   -1.0284    0.0218 C   0  0  0  0  0  0  0  0  0  0  0  0
    2.4504   -2.3068    0.5552 C   0  0  0  0  0  0  0  0  0  0  0  0
    2.5878   -2.5159    1.8738 C   0  0  0  0  0  0  0  0  0  0  0  0
   -3.7081   -0.0754    0.0602 C   0  0  0  0  0  0  0  0  0  0  0  0
   -4.4129    1.2249    0.5505 C   0  0  0  0  0  0  0  0  0  0  0  0
   -4.0972   -1.1595    1.0934 C   0  0  0  0  0  0  0  0  0  0  0  0
   -4.2972   -0.2960   -1.3300 C   0  0  0  0  0  0  0  0  0  0  0  0
   -5.1018   -1.2875   -1.7396 C   0  0  0  0  0  0  0  0  0  0  0  0
   -1.6977   -2.4044   -0.6992 C   0  0  0  0  0  0  0  0  0  0  0  0
   -0.4047   -1.1414   -2.7868 H   0  0  0  0  0  0  0  0  0  0  0  0
   -0.8564    0.5063   -2.3940 H   0  0  0  0  0  0  0  0  0  0  0  0
   -2.1039   -0.6774   -2.8180 H   0  0  0  0  0  0  0  0  0  0  0  0
   -2.0534    1.8400    1.1833 H   0  0  0  0  0  0  0  0  0  0  0  0
    0.2244    3.8815    2.1537 H   0  0  0  0  0  0  0  0  0  0  0  0
    2.0578    4.6884    1.4489 H   0  0  0  0  0  0  0  0  0  0  0  0
    4.4989    4.7933    1.4070 H   0  0  0  0  0  0  0  0  0  0  0  0
    1.7671   -1.5493   -2.0342 H   0  0  0  0  0  0  0  0  0  0  0  0
    3.4031   -2.1819   -2.0695 H   0  0  0  0  0  0  0  0  0  0  0  0
    3.1182   -0.4525   -2.3187 H   0  0  0  0  0  0  0  0  0  0  0  0
    4.9800   -0.3214   -0.6529 H   0  0  0  0  0  0  0  0  0  0  0  0
    4.9473   -2.0048   -0.1740 H   0  0  0  0  0  0  0  0  0  0  0  0
    4.7368   -0.7603    1.0540 H   0  0  0  0  0  0  0  0  0  0  0  0
    1.9185   -3.0610   -0.0232 H   0  0  0  0  0  0  0  0  0  0  0  0
    2.1855   -3.4116    2.3361 H   0  0  0  0  0  0  0  0  0  0  0  0
    3.0850   -1.7988    2.5186 H   0  0  0  0  0  0  0  0  0  0  0  0
   -4.1802    1.4452    1.5993 H   0  0  0  0  0  0  0  0  0  0  0  0
   -4.1297    2.0960   -0.0535 H   0  0  0  0  0  0  0  0  0  0  0  0
   -5.5055    1.1333    0.4893 H   0  0  0  0  0  0  0  0  0  0  0  0
   -3.5950   -0.9867    2.0530 H   0  0  0  0  0  0  0  0  0  0  0  0
   -5.1768   -1.1532    1.2897 H   0  0  0  0  0  0  0  0  0  0  0  0
   -3.8489   -2.1731    0.7720 H   0  0  0  0  0  0  0  0  0  0  0  0
   -4.0514    0.4759   -2.0615 H   0  0  0  0  0  0  0  0  0  0  0  0
   -5.4225   -2.0908   -1.0853 H   0  0  0  0  0  0  0  0  0  0  0  0
   -5.4655   -1.3126   -2.7629 H   0  0  0  0  0  0  0  0  0  0  0  0
   -0.9671   -3.0493   -1.2048 H   0  0  0  0  0  0  0  0  0  0  0  0
   -1.7148   -2.7429    0.3430 H   0  0  0  0  0  0  0  0  0  0  0  0
   -2.6678   -2.6005   -1.1588 H   0  0  0  0  0  0  0  0  0  0  0  0
  1  2  1  0
  2  3  1  0
  3  4  2  0
  4  5  1  0
  5  6  2  0
  6  7  1  0
  6  8  1  0
  8  9  2  0
  9 10  1  0
 10 11  2  0
 11 12  1  0
 10 13  1  0
 13 14  2  0
 14 15  1  0
 15 16  2  0
 15 17  1  0
  8 18  1  0
 18 19  1  0
 18 20  1  0
 18 21  1  0
 21 22  2  0
  3 23  1  0
 23 24  1  0
 23 25  1  0
 23 26  1  0
 26 27  2  0
  2 28  1  0
  7  2  1  0
 11  5  1  0
 17  9  1  0
  1 29  1  0
  1 30  1  0
  1 31  1  0
  4 32  1  0
 12 33  1  0
 13 34  1  0
 14 35  1  0
 19 36  1  0
 19 37  1  0
 19 38  1  0
 20 39  1  0
 20 40  1  0
 20 41  1  0
 21 42  1  0
 22 43  1  0
 22 44  1  0
 24 45  1  0
 24 46  1  0
 24 47  1  0
 25 48  1  0
 25 49  1  0
 25 50  1  0
 26 51  1  0
 27 52  1  0
 27 53  1  0
 28 54  1  0
 28 55  1  0
 28 56  1  0
M  END
>  <Name>  (455) 
Kinocoumarin

>  <PubChem ID>  (455) 
14213975

>  <CDB ID>  (455) 
CDB0455

>  <Smiles>  (455) 
CC1(C(=CC2=C(O1)C(=C3C(=C2O)C=CC(=O)O3)C(C)(C)C=C)C(C)(C)C=C)C

>  <Chemical class>  (455) 
5,7-Dioxygenated Coumarins

>  <Natural source>  (455) 
Citrus medica

>  <Molecular Formula>  (455) 
C24H28O4

>  <InChI-Key>  (455) 
OPQNNWVPHFUNEH-UHFFFAOYSA-N

>  <Total Molweight>  (455) 
380.482

>  <cLogP>  (455) 
5.9768

>  <cLogS>  (455) 
-5.642

>  <H-Acceptors>  (455) 
4

>  <H-Donors>  (455) 
1

>  <Rotatable Bonds>  (455) 
4

>  <Polar Surface Area>  (455) 
55.76

$$$$
CDB0456
     RDKit          3D

 46 48  0  0  0  0  0  0  0  0999 V2000
   -5.1349   -1.0095    1.2983 C   0  0  0  0  0  0  0  0  0  0  0  0
   -4.3133   -0.0062    0.5308 C   0  0  0  0  0  0  0  0  0  0  0  0
   -3.3384   -0.4174   -0.3044 C   0  0  0  0  0  0  0  0  0  0  0  0
   -2.4150    0.4188   -1.1507 C   0  0  0  0  0  0  0  0  0  0  0  0
   -0.9744    0.3023   -0.7024 C   0  0  0  0  0  0  0  0  0  0  0  0
   -0.1090   -0.6712   -1.2317 C   0  0  0  0  0  0  0  0  0  0  0  0
    1.1955   -0.8492   -0.7241 C   0  0  0  0  0  0  0  0  0  0  0  0
    1.6648    0.0096    0.2811 C   0  0  0  0  0  0  0  0  0  0  0  0
    0.8291    1.0064    0.8094 C   0  0  0  0  0  0  0  0  0  0  0  0
   -0.4723    1.1297    0.3140 C   0  0  0  0  0  0  0  0  0  0  0  0
   -1.3392    2.1170    0.8434 O   0  0  0  0  0  0  0  0  0  0  0  0
   -0.9569    2.9785    1.8590 C   0  0  0  0  0  0  0  0  0  0  0  0
   -1.7087    3.8290    2.3200 O   0  0  0  0  0  0  0  0  0  0  0  0
    0.4167    2.8306    2.3596 C   0  0  0  0  0  0  0  0  0  0  0  0
    1.2566    1.9134    1.8722 C   0  0  0  0  0  0  0  0  0  0  0  0
    2.9217   -0.0953    0.8218 O   0  0  0  0  0  0  0  0  0  0  0  0
    3.8982   -0.9364    0.1773 C   0  0  0  0  0  0  0  0  0  0  0  0
    3.3261   -1.9633   -0.7658 C   0  0  0  0  0  0  0  0  0  0  0  0
    2.0587   -1.9336   -1.1851 C   0  0  0  0  0  0  0  0  0  0  0  0
    4.6430   -1.6516    1.3111 C   0  0  0  0  0  0  0  0  0  0  0  0
    4.8670   -0.0187   -0.5770 C   0  0  0  0  0  0  0  0  0  0  0  0
   -0.5815   -1.5088   -2.2177 O   0  0  0  0  0  0  0  0  0  0  0  0
   -0.2270   -1.0026   -3.5083 C   0  0  0  0  0  0  0  0  0  0  0  0
   -4.6826    1.4261    0.8044 C   0  0  0  0  0  0  0  0  0  0  0  0
   -6.1943   -0.9084    1.0405 H   0  0  0  0  0  0  0  0  0  0  0  0
   -5.0212   -0.8476    2.3753 H   0  0  0  0  0  0  0  0  0  0  0  0
   -4.8383   -2.0418    1.0848 H   0  0  0  0  0  0  0  0  0  0  0  0
   -3.1709   -1.4899   -0.4118 H   0  0  0  0  0  0  0  0  0  0  0  0
   -2.5198    0.0901   -2.1911 H   0  0  0  0  0  0  0  0  0  0  0  0
   -2.7053    1.4732   -1.1794 H   0  0  0  0  0  0  0  0  0  0  0  0
    0.7090    3.5104    3.1501 H   0  0  0  0  0  0  0  0  0  0  0  0
    2.2652    1.8236    2.2618 H   0  0  0  0  0  0  0  0  0  0  0  0
    3.9842   -2.7523   -1.1200 H   0  0  0  0  0  0  0  0  0  0  0  0
    1.6627   -2.6881   -1.8553 H   0  0  0  0  0  0  0  0  0  0  0  0
    5.4582   -2.2800    0.9357 H   0  0  0  0  0  0  0  0  0  0  0  0
    5.0650   -0.9278    2.0185 H   0  0  0  0  0  0  0  0  0  0  0  0
    3.9590   -2.2841    1.8898 H   0  0  0  0  0  0  0  0  0  0  0  0
    5.2972    0.7318    0.0965 H   0  0  0  0  0  0  0  0  0  0  0  0
    5.6874   -0.5797   -1.0379 H   0  0  0  0  0  0  0  0  0  0  0  0
    4.3469    0.5384   -1.3655 H   0  0  0  0  0  0  0  0  0  0  0  0
   -0.5793    0.0250   -3.6507 H   0  0  0  0  0  0  0  0  0  0  0  0
   -0.7131   -1.6339   -4.2580 H   0  0  0  0  0  0  0  0  0  0  0  0
    0.8541   -1.0540   -3.6726 H   0  0  0  0  0  0  0  0  0  0  0  0
   -5.7397    1.5918    0.5708 H   0  0  0  0  0  0  0  0  0  0  0  0
   -4.1073    2.1470    0.2211 H   0  0  0  0  0  0  0  0  0  0  0  0
   -4.5234    1.6586    1.8626 H   0  0  0  0  0  0  0  0  0  0  0  0
  1  2  1  0
  2  3  2  3
  3  4  1  0
  4  5  1  0
  5  6  1  0
  6  7  2  0
  7  8  1  0
  8  9  2  0
  9 10  1  0
 10 11  1  0
 11 12  1  0
 12 13  2  0
 12 14  1  0
 14 15  2  0
  8 16  1  0
 16 17  1  0
 17 18  1  0
 18 19  2  0
 17 20  1  0
 17 21  1  0
  6 22  1  0
 22 23  1  0
  2 24  1  0
 10  5  2  0
 19  7  1  0
 15  9  1  0
  1 25  1  0
  1 26  1  0
  1 27  1  0
  3 28  1  0
  4 29  1  0
  4 30  1  0
 14 31  1  0
 15 32  1  0
 18 33  1  0
 19 34  1  0
 20 35  1  0
 20 36  1  0
 20 37  1  0
 21 38  1  0
 21 39  1  0
 21 40  1  0
 23 41  1  0
 23 42  1  0
 23 43  1  0
 24 44  1  0
 24 45  1  0
 24 46  1  0
M  END
>  <Name>  (456) 
Dipetaline

>  <PubChem ID>  (456) 
5316928

>  <CDB ID>  (456) 
CDB0456

>  <Smiles>  (456) 
CC(=CCC1=C(C2=C(C3=C1OC(=O)C=C3)OC(C=C2)(C)C)OC)C

>  <Chemical class>  (456) 
5,7-Dioxygenated Coumarins

>  <Natural source>  (456) 
Zanthoxylum dipetalum

>  <Molecular Formula>  (456) 
C20H22O4

>  <InChI-Key>  (456) 
NOGMHSRRWYDWTM-UHFFFAOYSA-N

>  <Total Molweight>  (456) 
326.391

>  <cLogP>  (456) 
4.4766

>  <cLogS>  (456) 
-4.586

>  <H-Acceptors>  (456) 
4

>  <H-Donors>  (456) 
0

>  <Rotatable Bonds>  (456) 
3

>  <Polar Surface Area>  (456) 
44.76

$$$$
CDB0457
     RDKit          3D

 44 46  0  0  0  0  0  0  0  0999 V2000
   -5.5712    0.2811   -0.2270 C   0  0  0  0  0  0  0  0  0  0  0  0
   -4.7995   -0.7955    0.4877 C   0  0  0  0  0  0  0  0  0  0  0  0
   -5.4396   -1.8176    1.0799 C   0  0  0  0  0  0  0  0  0  0  0  0
   -3.3454   -0.7247    0.5397 C   0  0  0  0  0  0  0  0  0  0  0  0
   -2.5824    0.2289   -0.0198 C   0  0  0  0  0  0  0  0  0  0  0  0
   -1.1096    0.2604    0.0863 C   0  0  0  0  0  0  0  0  0  0  0  0
   -0.2866   -0.8458   -0.2013 C   0  0  0  0  0  0  0  0  0  0  0  0
    1.1142   -0.7799   -0.0372 C   0  0  0  0  0  0  0  0  0  0  0  0
    1.7064    0.4304    0.3516 C   0  0  0  0  0  0  0  0  0  0  0  0
    0.9112    1.5602    0.6032 C   0  0  0  0  0  0  0  0  0  0  0  0
   -0.4766    1.4563    0.4644 C   0  0  0  0  0  0  0  0  0  0  0  0
   -1.2969    2.5870    0.7201 O   0  0  0  0  0  0  0  0  0  0  0  0
   -0.7796    3.8139    1.1037 C   0  0  0  0  0  0  0  0  0  0  0  0
   -1.4862    4.7929    1.3106 O   0  0  0  0  0  0  0  0  0  0  0  0
    0.6804    3.8914    1.2478 C   0  0  0  0  0  0  0  0  0  0  0  0
    1.4754    2.8438    1.0148 C   0  0  0  0  0  0  0  0  0  0  0  0
    3.0587    0.5751    0.5293 O   0  0  0  0  0  0  0  0  0  0  0  0
    3.9492   -0.4733    0.1008 C   0  0  0  0  0  0  0  0  0  0  0  0
    3.2883   -1.7969   -0.1851 C   0  0  0  0  0  0  0  0  0  0  0  0
    1.9634   -1.9496   -0.2453 C   0  0  0  0  0  0  0  0  0  0  0  0
    4.6657    0.0293   -1.1576 C   0  0  0  0  0  0  0  0  0  0  0  0
    4.9641   -0.6502    1.2366 C   0  0  0  0  0  0  0  0  0  0  0  0
   -0.8472   -2.0411   -0.6004 O   0  0  0  0  0  0  0  0  0  0  0  0
   -1.0495   -2.0463   -2.0157 C   0  0  0  0  0  0  0  0  0  0  0  0
   -5.2912    0.3218   -1.2852 H   0  0  0  0  0  0  0  0  0  0  0  0
   -5.3835    1.2599    0.2274 H   0  0  0  0  0  0  0  0  0  0  0  0
   -6.6521    0.1064   -0.1846 H   0  0  0  0  0  0  0  0  0  0  0  0
   -6.5224   -1.8951    1.0597 H   0  0  0  0  0  0  0  0  0  0  0  0
   -4.9078   -2.6066    1.6033 H   0  0  0  0  0  0  0  0  0  0  0  0
   -2.8534   -1.5263    1.0915 H   0  0  0  0  0  0  0  0  0  0  0  0
   -3.0231    1.0635   -0.5577 H   0  0  0  0  0  0  0  0  0  0  0  0
    1.0759    4.8517    1.5549 H   0  0  0  0  0  0  0  0  0  0  0  0
    2.5509    2.9297    1.1306 H   0  0  0  0  0  0  0  0  0  0  0  0
    3.9292   -2.6578   -0.3572 H   0  0  0  0  0  0  0  0  0  0  0  0
    1.5106   -2.9139   -0.4478 H   0  0  0  0  0  0  0  0  0  0  0  0
    5.1598    0.9895   -0.9679 H   0  0  0  0  0  0  0  0  0  0  0  0
    5.4195   -0.6824   -1.5120 H   0  0  0  0  0  0  0  0  0  0  0  0
    3.9517    0.2067   -1.9709 H   0  0  0  0  0  0  0  0  0  0  0  0
    5.7351   -1.3880    0.9883 H   0  0  0  0  0  0  0  0  0  0  0  0
    4.4655   -0.9705    2.1595 H   0  0  0  0  0  0  0  0  0  0  0  0
    5.4598    0.2999    1.4688 H   0  0  0  0  0  0  0  0  0  0  0  0
   -1.7756   -1.2870   -2.3229 H   0  0  0  0  0  0  0  0  0  0  0  0
   -0.1054   -1.9043   -2.5531 H   0  0  0  0  0  0  0  0  0  0  0  0
   -1.4502   -3.0266   -2.2906 H   0  0  0  0  0  0  0  0  0  0  0  0
  1  2  1  0
  2  3  2  0
  2  4  1  0
  4  5  2  3
  5  6  1  0
  6  7  2  0
  7  8  1  0
  8  9  2  0
  9 10  1  0
 10 11  2  0
 11 12  1  0
 12 13  1  0
 13 14  2  0
 13 15  1  0
 15 16  2  0
  9 17  1  0
 17 18  1  0
 18 19  1  0
 19 20  2  0
 18 21  1  0
 18 22  1  0
  7 23  1  0
 23 24  1  0
 11  6  1  0
 20  8  1  0
 16 10  1  0
  1 25  1  0
  1 26  1  0
  1 27  1  0
  3 28  1  0
  3 29  1  0
  4 30  1  0
  5 31  1  0
 15 32  1  0
 16 33  1  0
 19 34  1  0
 20 35  1  0
 21 36  1  0
 21 37  1  0
 21 38  1  0
 22 39  1  0
 22 40  1  0
 22 41  1  0
 24 42  1  0
 24 43  1  0
 24 44  1  0
M  END
>  <Name>  (457) 
Avicennin

>  <PubChem ID>  (457) 
5321265

>  <CDB ID>  (457) 
CDB0457

>  <Smiles>  (457) 
CC(=C)C=CC1=C(C2=C(C3=C1OC(=O)C=C3)OC(C=C2)(C)C)OC

>  <Chemical class>  (457) 
5,7-Dioxygenated Coumarins

>  <Natural source>  (457) 
Zanthoxylum avicennae

>  <Molecular Formula>  (457) 
C20H20O4

>  <InChI-Key>  (457) 
AKGXRWOSGJLLNQ-UHFFFAOYSA-N

>  <Total Molweight>  (457) 
324.375

>  <cLogP>  (457) 
4.42

>  <cLogS>  (457) 
-4.888

>  <H-Acceptors>  (457) 
4

>  <H-Donors>  (457) 
0

>  <Rotatable Bonds>  (457) 
3

>  <Polar Surface Area>  (457) 
44.76

$$$$
CDB0458
     RDKit          3D

 47 49  0  0  0  0  0  0  0  0999 V2000
    5.1373   -1.5398   -0.4198 C   0  0  0  0  0  0  0  0  0  0  0  0
    4.1793   -0.7812    0.5065 C   0  0  0  0  0  0  0  0  0  0  0  0
    3.3694   -1.7719    1.3023 C   0  0  0  0  0  0  0  0  0  0  0  0
    2.0380   -1.7216    1.3857 C   0  0  0  0  0  0  0  0  0  0  0  0
    1.3335   -0.6511    0.6854 C   0  0  0  0  0  0  0  0  0  0  0  0
    2.0581    0.2004   -0.1610 C   0  0  0  0  0  0  0  0  0  0  0  0
    3.4121    0.0881   -0.3487 O   0  0  0  0  0  0  0  0  0  0  0  0
    1.4006    1.2085   -0.8852 C   0  0  0  0  0  0  0  0  0  0  0  0
    0.0150    1.3452   -0.7521 C   0  0  0  0  0  0  0  0  0  0  0  0
   -0.7475    0.5076    0.0782 C   0  0  0  0  0  0  0  0  0  0  0  0
   -0.0590   -0.4673    0.8263 C   0  0  0  0  0  0  0  0  0  0  0  0
   -0.7542   -1.3004    1.6787 O   0  0  0  0  0  0  0  0  0  0  0  0
   -0.8860   -0.6906    2.9650 C   0  0  0  0  0  0  0  0  0  0  0  0
   -2.2087    0.6963    0.1511 C   0  0  0  0  0  0  0  0  0  0  0  0
   -3.0899   -0.3049   -0.0174 C   0  0  0  0  0  0  0  0  0  0  0  0
   -4.5960   -0.1927    0.0214 C   0  0  0  0  0  0  0  0  0  0  0  0
   -5.1736   -0.3566   -1.3838 C   0  0  0  0  0  0  0  0  0  0  0  0
   -5.1830   -1.2437    0.9672 C   0  0  0  0  0  0  0  0  0  0  0  0
   -4.9872    1.0928    0.5003 O   0  0  0  0  0  0  0  0  0  0  0  0
   -0.6676    2.3535   -1.4823 O   0  0  0  0  0  0  0  0  0  0  0  0
   -0.0147    3.2289   -2.3353 C   0  0  0  0  0  0  0  0  0  0  0  0
   -0.6002    4.1063   -2.9581 O   0  0  0  0  0  0  0  0  0  0  0  0
    1.4395    3.0592   -2.4583 C   0  0  0  0  0  0  0  0  0  0  0  0
    2.1065    2.1191   -1.7839 C   0  0  0  0  0  0  0  0  0  0  0  0
    4.9819    0.1137    1.4576 C   0  0  0  0  0  0  0  0  0  0  0  0
    4.5812   -2.1559   -1.1368 H   0  0  0  0  0  0  0  0  0  0  0  0
    5.7387   -0.8425   -1.0152 H   0  0  0  0  0  0  0  0  0  0  0  0
    5.8190   -2.1915    0.1378 H   0  0  0  0  0  0  0  0  0  0  0  0
    3.9048   -2.5533    1.8354 H   0  0  0  0  0  0  0  0  0  0  0  0
    1.4763   -2.4495    1.9604 H   0  0  0  0  0  0  0  0  0  0  0  0
   -1.4866    0.2235    2.9173 H   0  0  0  0  0  0  0  0  0  0  0  0
    0.0928   -0.4763    3.4077 H   0  0  0  0  0  0  0  0  0  0  0  0
   -1.4038   -1.4000    3.6175 H   0  0  0  0  0  0  0  0  0  0  0  0
   -2.5484    1.7194    0.2956 H   0  0  0  0  0  0  0  0  0  0  0  0
   -2.7104   -1.3064   -0.2211 H   0  0  0  0  0  0  0  0  0  0  0  0
   -6.2643   -0.2463   -1.3716 H   0  0  0  0  0  0  0  0  0  0  0  0
   -4.7937    0.4208   -2.0577 H   0  0  0  0  0  0  0  0  0  0  0  0
   -4.9307   -1.3341   -1.8145 H   0  0  0  0  0  0  0  0  0  0  0  0
   -6.2714   -1.1355    1.0409 H   0  0  0  0  0  0  0  0  0  0  0  0
   -4.7910   -1.1212    1.9841 H   0  0  0  0  0  0  0  0  0  0  0  0
   -4.9592   -2.2631    0.6344 H   0  0  0  0  0  0  0  0  0  0  0  0
   -4.6295    1.1828    1.3992 H   0  0  0  0  0  0  0  0  0  0  0  0
    1.9408    3.7441   -3.1310 H   0  0  0  0  0  0  0  0  0  0  0  0
    3.1809    2.0160   -1.8959 H   0  0  0  0  0  0  0  0  0  0  0  0
    4.3147    0.7010    2.1000 H   0  0  0  0  0  0  0  0  0  0  0  0
    5.5840    0.8380    0.8965 H   0  0  0  0  0  0  0  0  0  0  0  0
    5.6521   -0.4680    2.1000 H   0  0  0  0  0  0  0  0  0  0  0  0
  1  2  1  0
  2  3  1  0
  3  4  2  0
  4  5  1  0
  5  6  2  0
  6  7  1  0
  6  8  1  0
  8  9  2  0
  9 10  1  0
 10 11  2  0
 11 12  1  0
 12 13  1  0
 10 14  1  0
 14 15  2  3
 15 16  1  0
 16 17  1  0
 16 18  1  0
 16 19  1  0
  9 20  1  0
 20 21  1  0
 21 22  2  0
 21 23  1  0
 23 24  2  0
  2 25  1  0
  7  2  1  0
 11  5  1  0
 24  8  1  0
  1 26  1  0
  1 27  1  0
  1 28  1  0
  3 29  1  0
  4 30  1  0
 13 31  1  0
 13 32  1  0
 13 33  1  0
 14 34  1  0
 15 35  1  0
 17 36  1  0
 17 37  1  0
 17 38  1  0
 18 39  1  0
 18 40  1  0
 18 41  1  0
 19 42  1  0
 23 43  1  0
 24 44  1  0
 25 45  1  0
 25 46  1  0
 25 47  1  0
M  END
>  <Name>  (458) 
Avicennol

>  <PubChem ID>  (458) 
15118768

>  <CDB ID>  (458) 
CDB0458

>  <Smiles>  (458) 
CC1(C=CC2=C(O1)C3=C(C(=C2OC)C=CC(C)(C)O)OC(=O)C=C3)C

>  <Chemical class>  (458) 
5,7-Dioxygenated Coumarins

>  <Natural source>  (458) 
Zanthoxylum avicennae

>  <Molecular Formula>  (458) 
C20H22O5

>  <InChI-Key>  (458) 
AXYRILDCSATJFU-UHFFFAOYSA-N

>  <Total Molweight>  (458) 
342.39

>  <cLogP>  (458) 
3.3579

>  <cLogS>  (458) 
-4.535

>  <H-Acceptors>  (458) 
5

>  <H-Donors>  (458) 
1

>  <Rotatable Bonds>  (458) 
3

>  <Polar Surface Area>  (458) 
64.99

$$$$
CDB0459
     RDKit          3D

 47 49  0  0  0  0  0  0  0  0999 V2000
    5.1373   -1.5398   -0.4198 C   0  0  0  0  0  0  0  0  0  0  0  0
    4.1793   -0.7812    0.5065 C   0  0  0  0  0  0  0  0  0  0  0  0
    3.3694   -1.7719    1.3023 C   0  0  0  0  0  0  0  0  0  0  0  0
    2.0380   -1.7216    1.3857 C   0  0  0  0  0  0  0  0  0  0  0  0
    1.3335   -0.6511    0.6854 C   0  0  0  0  0  0  0  0  0  0  0  0
    2.0581    0.2004   -0.1610 C   0  0  0  0  0  0  0  0  0  0  0  0
    3.4121    0.0881   -0.3487 O   0  0  0  0  0  0  0  0  0  0  0  0
    1.4006    1.2085   -0.8852 C   0  0  0  0  0  0  0  0  0  0  0  0
    0.0150    1.3452   -0.7521 C   0  0  0  0  0  0  0  0  0  0  0  0
   -0.7475    0.5076    0.0782 C   0  0  0  0  0  0  0  0  0  0  0  0
   -0.0590   -0.4673    0.8263 C   0  0  0  0  0  0  0  0  0  0  0  0
   -0.7542   -1.3004    1.6787 O   0  0  0  0  0  0  0  0  0  0  0  0
   -0.8860   -0.6906    2.9650 C   0  0  0  0  0  0  0  0  0  0  0  0
   -2.2087    0.6963    0.1511 C   0  0  0  0  0  0  0  0  0  0  0  0
   -3.0899   -0.3049   -0.0174 C   0  0  0  0  0  0  0  0  0  0  0  0
   -4.5960   -0.1927    0.0214 C   0  0  0  0  0  0  0  0  0  0  0  0
   -5.1736   -0.3566   -1.3838 C   0  0  0  0  0  0  0  0  0  0  0  0
   -5.1830   -1.2437    0.9672 C   0  0  0  0  0  0  0  0  0  0  0  0
   -4.9872    1.0928    0.5003 O   0  0  0  0  0  0  0  0  0  0  0  0
   -0.6676    2.3535   -1.4823 O   0  0  0  0  0  0  0  0  0  0  0  0
   -0.0147    3.2289   -2.3353 C   0  0  0  0  0  0  0  0  0  0  0  0
   -0.6002    4.1063   -2.9581 O   0  0  0  0  0  0  0  0  0  0  0  0
    1.4395    3.0592   -2.4583 C   0  0  0  0  0  0  0  0  0  0  0  0
    2.1065    2.1191   -1.7839 C   0  0  0  0  0  0  0  0  0  0  0  0
    4.9819    0.1137    1.4576 C   0  0  0  0  0  0  0  0  0  0  0  0
    4.5812   -2.1559   -1.1368 H   0  0  0  0  0  0  0  0  0  0  0  0
    5.7387   -0.8425   -1.0152 H   0  0  0  0  0  0  0  0  0  0  0  0
    5.8190   -2.1915    0.1378 H   0  0  0  0  0  0  0  0  0  0  0  0
    3.9048   -2.5533    1.8354 H   0  0  0  0  0  0  0  0  0  0  0  0
    1.4763   -2.4495    1.9604 H   0  0  0  0  0  0  0  0  0  0  0  0
   -1.4866    0.2235    2.9173 H   0  0  0  0  0  0  0  0  0  0  0  0
    0.0928   -0.4763    3.4077 H   0  0  0  0  0  0  0  0  0  0  0  0
   -1.4038   -1.4000    3.6175 H   0  0  0  0  0  0  0  0  0  0  0  0
   -2.5484    1.7194    0.2956 H   0  0  0  0  0  0  0  0  0  0  0  0
   -2.7104   -1.3064   -0.2211 H   0  0  0  0  0  0  0  0  0  0  0  0
   -6.2643   -0.2463   -1.3716 H   0  0  0  0  0  0  0  0  0  0  0  0
   -4.7937    0.4208   -2.0577 H   0  0  0  0  0  0  0  0  0  0  0  0
   -4.9307   -1.3341   -1.8145 H   0  0  0  0  0  0  0  0  0  0  0  0
   -6.2714   -1.1355    1.0409 H   0  0  0  0  0  0  0  0  0  0  0  0
   -4.7910   -1.1212    1.9841 H   0  0  0  0  0  0  0  0  0  0  0  0
   -4.9592   -2.2631    0.6344 H   0  0  0  0  0  0  0  0  0  0  0  0
   -4.6295    1.1828    1.3992 H   0  0  0  0  0  0  0  0  0  0  0  0
    1.9408    3.7441   -3.1310 H   0  0  0  0  0  0  0  0  0  0  0  0
    3.1809    2.0160   -1.8959 H   0  0  0  0  0  0  0  0  0  0  0  0
    4.3147    0.7010    2.1000 H   0  0  0  0  0  0  0  0  0  0  0  0
    5.5840    0.8380    0.8965 H   0  0  0  0  0  0  0  0  0  0  0  0
    5.6521   -0.4680    2.1000 H   0  0  0  0  0  0  0  0  0  0  0  0
  1  2  1  0
  2  3  1  0
  3  4  2  0
  4  5  1  0
  5  6  2  0
  6  7  1  0
  6  8  1  0
  8  9  2  0
  9 10  1  0
 10 11  2  0
 11 12  1  0
 12 13  1  0
 10 14  1  0
 14 15  2  3
 15 16  1  0
 16 17  1  0
 16 18  1  0
 16 19  1  0
  9 20  1  0
 20 21  1  0
 21 22  2  0
 21 23  1  0
 23 24  2  0
  2 25  1  0
  7  2  1  0
 11  5  1  0
 24  8  1  0
  1 26  1  0
  1 27  1  0
  1 28  1  0
  3 29  1  0
  4 30  1  0
 13 31  1  0
 13 32  1  0
 13 33  1  0
 14 34  1  0
 15 35  1  0
 17 36  1  0
 17 37  1  0
 17 38  1  0
 18 39  1  0
 18 40  1  0
 18 41  1  0
 19 42  1  0
 23 43  1  0
 24 44  1  0
 25 45  1  0
 25 46  1  0
 25 47  1  0
M  END
>  <Name>  (459) 
Cis-Avicennol

>  <PubChem ID>  (459) 
15118769

>  <CDB ID>  (459) 
CDB0459

>  <Smiles>  (459) 
CC1(C=CC2=C(O1)C3=C(C(=C2OC)C=CC(C)(C)O)OC(=O)C=C3)C

>  <Chemical class>  (459) 
5,7-Dioxygenated Coumarins

>  <Natural source>  (459) 
Zanthoxylum elephantiasis

>  <Molecular Formula>  (459) 
C20H22O5

>  <InChI-Key>  (459) 
AXYRILDCSATJFU-UHFFFAOYSA-N

>  <Total Molweight>  (459) 
342.39

>  <cLogP>  (459) 
3.3579

>  <cLogS>  (459) 
-4.535

>  <H-Acceptors>  (459) 
5

>  <H-Donors>  (459) 
1

>  <Rotatable Bonds>  (459) 
3

>  <Polar Surface Area>  (459) 
64.99

$$$$
CDB0460
     RDKit          3D

 43 46  0  0  0  0  0  0  0  0999 V2000
   -3.7873   -2.2976   -0.8450 C   0  0  0  0  0  0  0  0  0  0  0  0
   -2.7357   -1.5661   -0.0222 C   0  0  0  0  0  0  0  0  0  0  0  0
   -2.8116   -0.0133   -0.0487 C   0  0  0  0  0  0  0  0  0  0  0  0
   -1.3484    0.2604    0.1239 C   0  0  0  0  0  0  0  0  0  0  0  0
   -0.6242   -0.8882   -0.1728 C   0  0  0  0  0  0  0  0  0  0  0  0
   -1.4235   -1.9602   -0.4998 O   0  0  0  0  0  0  0  0  0  0  0  0
    0.7665   -0.9202   -0.1614 C   0  0  0  0  0  0  0  0  0  0  0  0
    1.4470    0.2562    0.1814 C   0  0  0  0  0  0  0  0  0  0  0  0
    0.7306    1.4347    0.4920 C   0  0  0  0  0  0  0  0  0  0  0  0
   -0.6680    1.4207    0.4508 C   0  0  0  0  0  0  0  0  0  0  0  0
   -1.4144    2.5813    0.7208 O   0  0  0  0  0  0  0  0  0  0  0  0
   -0.8028    3.7796    1.0575 C   0  0  0  0  0  0  0  0  0  0  0  0
   -1.4413    4.7967    1.3008 O   0  0  0  0  0  0  0  0  0  0  0  0
    0.6668    3.7795    1.1123 C   0  0  0  0  0  0  0  0  0  0  0  0
    1.3907    2.6881    0.8487 C   0  0  0  0  0  0  0  0  0  0  0  0
    2.8153    0.3295    0.2366 O   0  0  0  0  0  0  0  0  0  0  0  0
    3.6101   -0.8184   -0.1248 C   0  0  0  0  0  0  0  0  0  0  0  0
    2.8400   -2.0712   -0.4640 C   0  0  0  0  0  0  0  0  0  0  0  0
    1.5065   -2.1284   -0.4828 C   0  0  0  0  0  0  0  0  0  0  0  0
    4.5260   -1.0972    1.0728 C   0  0  0  0  0  0  0  0  0  0  0  0
    4.4544   -0.3984   -1.3337 C   0  0  0  0  0  0  0  0  0  0  0  0
   -3.2861    0.5685   -1.3887 C   0  0  0  0  0  0  0  0  0  0  0  0
   -3.6969    0.4989    1.0912 C   0  0  0  0  0  0  0  0  0  0  0  0
   -3.6789   -3.3799   -0.7124 H   0  0  0  0  0  0  0  0  0  0  0  0
   -3.6625   -2.1108   -1.9166 H   0  0  0  0  0  0  0  0  0  0  0  0
   -4.7998   -2.0135   -0.5445 H   0  0  0  0  0  0  0  0  0  0  0  0
   -2.8043   -1.9324    1.0134 H   0  0  0  0  0  0  0  0  0  0  0  0
    1.1306    4.7212    1.3784 H   0  0  0  0  0  0  0  0  0  0  0  0
    2.4744    2.7145    0.8943 H   0  0  0  0  0  0  0  0  0  0  0  0
    3.4100   -2.9639   -0.7084 H   0  0  0  0  0  0  0  0  0  0  0  0
    0.9683   -3.0361   -0.7325 H   0  0  0  0  0  0  0  0  0  0  0  0
    3.9381   -1.3568    1.9615 H   0  0  0  0  0  0  0  0  0  0  0  0
    5.2267   -1.9154    0.8730 H   0  0  0  0  0  0  0  0  0  0  0  0
    5.1055   -0.2049    1.3374 H   0  0  0  0  0  0  0  0  0  0  0  0
    5.0334    0.5055   -1.1105 H   0  0  0  0  0  0  0  0  0  0  0  0
    3.8148   -0.1504   -2.1894 H   0  0  0  0  0  0  0  0  0  0  0  0
    5.1508   -1.1859   -1.6421 H   0  0  0  0  0  0  0  0  0  0  0  0
   -4.3409    0.3368   -1.5728 H   0  0  0  0  0  0  0  0  0  0  0  0
   -3.1858    1.6603   -1.4038 H   0  0  0  0  0  0  0  0  0  0  0  0
   -2.7033    0.1806   -2.2325 H   0  0  0  0  0  0  0  0  0  0  0  0
   -3.3127    0.1894    2.0700 H   0  0  0  0  0  0  0  0  0  0  0  0
   -4.7185    0.1145    0.9949 H   0  0  0  0  0  0  0  0  0  0  0  0
   -3.7598    1.5921    1.0976 H   0  0  0  0  0  0  0  0  0  0  0  0
  1  2  1  0
  2  3  1  0
  3  4  1  0
  4  5  1  0
  5  6  1  0
  5  7  2  0
  7  8  1  0
  8  9  2  0
  9 10  1  0
 10 11  1  0
 11 12  1  0
 12 13  2  0
 12 14  1  0
 14 15  2  0
  8 16  1  0
 16 17  1  0
 17 18  1  0
 18 19  2  0
 17 20  1  0
 17 21  1  0
  3 22  1  0
  3 23  1  0
  6  2  1  0
 10  4  2  0
 19  7  1  0
 15  9  1  0
  1 24  1  0
  1 25  1  0
  1 26  1  0
  2 27  1  0
 14 28  1  0
 15 29  1  0
 18 30  1  0
 19 31  1  0
 20 32  1  0
 20 33  1  0
 20 34  1  0
 21 35  1  0
 21 36  1  0
 21 37  1  0
 22 38  1  0
 22 39  1  0
 22 40  1  0
 23 41  1  0
 23 42  1  0
 23 43  1  0
M  END
>  <Name>  (460) 
Citrusarin-A

>  <PubChem ID>  (460) 
15108309

>  <CDB ID>  (460) 
CDB0460

>  <Smiles>  (460) 
CC1C(C2=C(O1)C3=C(C4=C2OC(=O)C=C4)OC(C=C3)(C)C)(C)C

>  <Chemical class>  (460) 
5,7-Dioxygenated Coumarins

>  <Natural source>  (460) 
Citrus hassaku

>  <Molecular Formula>  (460) 
C19H20O4

>  <InChI-Key>  (460) 
AOIFNIMKVOPLGP-SNVBAGLBSA-N

>  <Total Molweight>  (460) 
312.364

>  <cLogP>  (460) 
3.5256

>  <cLogS>  (460) 
-5.031

>  <H-Acceptors>  (460) 
4

>  <H-Donors>  (460) 
0

>  <Rotatable Bonds>  (460) 
0

>  <Polar Surface Area>  (460) 
44.76

$$$$
CDB0461
     RDKit          3D

 43 46  0  0  0  0  0  0  0  0999 V2000
   -3.1879   -0.8222    2.0064 C   0  0  0  0  0  0  0  0  0  0  0  0
   -2.9386   -0.7943    0.4961 C   0  0  0  0  0  0  0  0  0  0  0  0
   -1.6029   -1.4249    0.0020 C   0  0  0  0  0  0  0  0  0  0  0  0
   -0.7765   -0.1742   -0.0693 C   0  0  0  0  0  0  0  0  0  0  0  0
   -1.6232    0.9308   -0.0402 C   0  0  0  0  0  0  0  0  0  0  0  0
   -2.9519    0.6008    0.0862 O   0  0  0  0  0  0  0  0  0  0  0  0
   -1.1512    2.2278   -0.1510 C   0  0  0  0  0  0  0  0  0  0  0  0
    0.2286    2.3911   -0.2817 C   0  0  0  0  0  0  0  0  0  0  0  0
    1.1165    1.2950   -0.3133 C   0  0  0  0  0  0  0  0  0  0  0  0
    0.5971   -0.0028   -0.2110 C   0  0  0  0  0  0  0  0  0  0  0  0
    1.3604   -1.1300   -0.2739 O   0  0  0  0  0  0  0  0  0  0  0  0
    2.7965   -1.0139   -0.3048 C   0  0  0  0  0  0  0  0  0  0  0  0
    3.3327    0.3884   -0.4591 C   0  0  0  0  0  0  0  0  0  0  0  0
    2.5549    1.4741   -0.4671 C   0  0  0  0  0  0  0  0  0  0  0  0
    3.2646   -1.8679   -1.4889 C   0  0  0  0  0  0  0  0  0  0  0  0
    3.3143   -1.6186    1.0052 C   0  0  0  0  0  0  0  0  0  0  0  0
    0.7680    3.6975   -0.3924 O   0  0  0  0  0  0  0  0  0  0  0  0
   -0.0324    4.8309   -0.3762 C   0  0  0  0  0  0  0  0  0  0  0  0
    0.4293    5.9620   -0.4702 O   0  0  0  0  0  0  0  0  0  0  0  0
   -1.4820    4.6163   -0.2388 C   0  0  0  0  0  0  0  0  0  0  0  0
   -2.0152    3.3962   -0.1322 C   0  0  0  0  0  0  0  0  0  0  0  0
   -1.0550   -2.5174    0.9243 C   0  0  0  0  0  0  0  0  0  0  0  0
   -1.7801   -1.9937   -1.4181 C   0  0  0  0  0  0  0  0  0  0  0  0
   -2.3784   -0.3319    2.5579 H   0  0  0  0  0  0  0  0  0  0  0  0
   -3.3008   -1.8449    2.3771 H   0  0  0  0  0  0  0  0  0  0  0  0
   -4.1038   -0.2704    2.2459 H   0  0  0  0  0  0  0  0  0  0  0  0
   -3.7936   -1.2811    0.0103 H   0  0  0  0  0  0  0  0  0  0  0  0
    4.4083    0.5086   -0.5608 H   0  0  0  0  0  0  0  0  0  0  0  0
    2.9690    2.4703   -0.5767 H   0  0  0  0  0  0  0  0  0  0  0  0
    2.8677   -1.4763   -2.4334 H   0  0  0  0  0  0  0  0  0  0  0  0
    4.3570   -1.9041   -1.5635 H   0  0  0  0  0  0  0  0  0  0  0  0
    2.8914   -2.8951   -1.4011 H   0  0  0  0  0  0  0  0  0  0  0  0
    2.9435   -2.6421    1.1359 H   0  0  0  0  0  0  0  0  0  0  0  0
    2.9523   -1.0482    1.8691 H   0  0  0  0  0  0  0  0  0  0  0  0
    4.4090   -1.6412    1.0426 H   0  0  0  0  0  0  0  0  0  0  0  0
   -2.0940    5.5097   -0.2293 H   0  0  0  0  0  0  0  0  0  0  0  0
   -3.0861    3.2527   -0.0320 H   0  0  0  0  0  0  0  0  0  0  0  0
   -0.7651   -2.1209    1.9035 H   0  0  0  0  0  0  0  0  0  0  0  0
   -1.7993   -3.3065    1.0794 H   0  0  0  0  0  0  0  0  0  0  0  0
   -0.1664   -2.9977    0.5002 H   0  0  0  0  0  0  0  0  0  0  0  0
   -0.8229   -2.3263   -1.8368 H   0  0  0  0  0  0  0  0  0  0  0  0
   -2.4582   -2.8546   -1.4106 H   0  0  0  0  0  0  0  0  0  0  0  0
   -2.1957   -1.2509   -2.1095 H   0  0  0  0  0  0  0  0  0  0  0  0
  1  2  1  0
  2  3  1  0
  3  4  1  0
  4  5  2  0
  5  6  1  0
  5  7  1  0
  7  8  2  0
  8  9  1  0
  9 10  2  0
 10 11  1  0
 11 12  1  0
 12 13  1  0
 13 14  2  0
 12 15  1  0
 12 16  1  0
  8 17  1  0
 17 18  1  0
 18 19  2  0
 18 20  1  0
 20 21  2  0
  3 22  1  0
  3 23  1  0
  6  2  1  0
 10  4  1  0
 21  7  1  0
 14  9  1  0
  1 24  1  0
  1 25  1  0
  1 26  1  0
  2 27  1  0
 13 28  1  0
 14 29  1  0
 15 30  1  0
 15 31  1  0
 15 32  1  0
 16 33  1  0
 16 34  1  0
 16 35  1  0
 20 36  1  0
 21 37  1  0
 22 38  1  0
 22 39  1  0
 22 40  1  0
 23 41  1  0
 23 42  1  0
 23 43  1  0
M  END
>  <Name>  (461) 
Citrusarin-B

>  <PubChem ID>  (461) 
15108310

>  <CDB ID>  (461) 
CDB0461

>  <Smiles>  (461) 
CC1C(C2=C(O1)C3=C(C4=C2OC(C=C4)(C)C)OC(=O)C=C3)(C)C

>  <Chemical class>  (461) 
5,7-Dioxygenated Coumarins

>  <Natural source>  (461) 
Citrus hassaku

>  <Molecular Formula>  (461) 
C19H20O4

>  <InChI-Key>  (461) 
XJGSKSKCCPKGNZ-SNVBAGLBSA-N

>  <Total Molweight>  (461) 
312.364

>  <cLogP>  (461) 
3.5256

>  <cLogS>  (461) 
-5.031

>  <H-Acceptors>  (461) 
4

>  <H-Donors>  (461) 
0

>  <Rotatable Bonds>  (461) 
0

>  <Polar Surface Area>  (461) 
44.76

$$$$
CDB0462
     RDKit          3D

 41 44  0  0  0  0  0  0  0  0999 V2000
    4.1398   -0.6669    1.3540 C   0  0  0  0  0  0  0  0  0  0  0  0
    3.2735   -0.7177    0.0901 C   0  0  0  0  0  0  0  0  0  0  0  0
    2.3635   -1.9156    0.1567 C   0  0  0  0  0  0  0  0  0  0  0  0
    1.0321   -1.8250    0.1344 C   0  0  0  0  0  0  0  0  0  0  0  0
    0.4179   -0.5031    0.0409 C   0  0  0  0  0  0  0  0  0  0  0  0
    1.2459    0.6283   -0.0226 C   0  0  0  0  0  0  0  0  0  0  0  0
    2.6146    0.5593   -0.0016 O   0  0  0  0  0  0  0  0  0  0  0  0
    0.6834    1.9117   -0.1129 C   0  0  0  0  0  0  0  0  0  0  0  0
   -0.7075    2.0386   -0.1380 C   0  0  0  0  0  0  0  0  0  0  0  0
   -1.5581    0.9257   -0.0761 C   0  0  0  0  0  0  0  0  0  0  0  0
   -0.9858   -0.3481    0.0135 C   0  0  0  0  0  0  0  0  0  0  0  0
   -1.7356   -1.4950    0.0799 O   0  0  0  0  0  0  0  0  0  0  0  0
   -3.1734   -1.4245    0.0493 C   0  0  0  0  0  0  0  0  0  0  0  0
   -3.7554   -0.0377   -0.0434 C   0  0  0  0  0  0  0  0  0  0  0  0
   -3.0084    1.0668   -0.1023 C   0  0  0  0  0  0  0  0  0  0  0  0
   -3.6208   -2.2454   -1.1657 C   0  0  0  0  0  0  0  0  0  0  0  0
   -3.6655   -2.0965    1.3364 C   0  0  0  0  0  0  0  0  0  0  0  0
   -1.2990    3.3242   -0.2287 O   0  0  0  0  0  0  0  0  0  0  0  0
   -0.5473    4.4867   -0.2951 C   0  0  0  0  0  0  0  0  0  0  0  0
   -1.0579    5.5975   -0.3734 O   0  0  0  0  0  0  0  0  0  0  0  0
    0.9126    4.3251   -0.2669 C   0  0  0  0  0  0  0  0  0  0  0  0
    1.4939    3.1257   -0.1820 C   0  0  0  0  0  0  0  0  0  0  0  0
    4.1714   -0.8300   -1.1474 C   0  0  0  0  0  0  0  0  0  0  0  0
    4.7406   -1.5747    1.4774 H   0  0  0  0  0  0  0  0  0  0  0  0
    3.5181   -0.5414    2.2487 H   0  0  0  0  0  0  0  0  0  0  0  0
    4.8182    0.1940    1.3280 H   0  0  0  0  0  0  0  0  0  0  0  0
    2.8246   -2.8976    0.2263 H   0  0  0  0  0  0  0  0  0  0  0  0
    0.4034   -2.7072    0.1840 H   0  0  0  0  0  0  0  0  0  0  0  0
   -4.8384    0.0552   -0.0632 H   0  0  0  0  0  0  0  0  0  0  0  0
   -3.4577    2.0518   -0.1689 H   0  0  0  0  0  0  0  0  0  0  0  0
   -4.7120   -2.3116   -1.2380 H   0  0  0  0  0  0  0  0  0  0  0  0
   -3.2165   -3.2636   -1.1193 H   0  0  0  0  0  0  0  0  0  0  0  0
   -3.2403   -1.8057   -2.0956 H   0  0  0  0  0  0  0  0  0  0  0  0
   -4.7587   -2.1561    1.3770 H   0  0  0  0  0  0  0  0  0  0  0  0
   -3.2618   -3.1119    1.4257 H   0  0  0  0  0  0  0  0  0  0  0  0
   -3.3176   -1.5485    2.2205 H   0  0  0  0  0  0  0  0  0  0  0  0
    1.4921    5.2385   -0.3192 H   0  0  0  0  0  0  0  0  0  0  0  0
    2.5750    3.0348   -0.1630 H   0  0  0  0  0  0  0  0  0  0  0  0
    4.8505    0.0281   -1.2163 H   0  0  0  0  0  0  0  0  0  0  0  0
    3.5727   -0.8226   -2.0663 H   0  0  0  0  0  0  0  0  0  0  0  0
    4.7736   -1.7452   -1.1368 H   0  0  0  0  0  0  0  0  0  0  0  0
  1  2  1  0
  2  3  1  0
  3  4  2  0
  4  5  1  0
  5  6  1  0
  6  7  1  0
  6  8  2  0
  8  9  1  0
  9 10  2  0
 10 11  1  0
 11 12  1  0
 12 13  1  0
 13 14  1  0
 14 15  2  0
 13 16  1  0
 13 17  1  0
  9 18  1  0
 18 19  1  0
 19 20  2  0
 19 21  1  0
 21 22  2  0
  2 23  1  0
  7  2  1  0
 11  5  2  0
 22  8  1  0
 15 10  1  0
  1 24  1  0
  1 25  1  0
  1 26  1  0
  3 27  1  0
  4 28  1  0
 14 29  1  0
 15 30  1  0
 16 31  1  0
 16 32  1  0
 16 33  1  0
 17 34  1  0
 17 35  1  0
 17 36  1  0
 21 37  1  0
 22 38  1  0
 23 39  1  0
 23 40  1  0
 23 41  1  0
M  END
>  <Name>  (462) 
Dipetalolactone (Hortiline)

>  <PubChem ID>  (462) 
11438305

>  <CDB ID>  (462) 
CDB0462

>  <Smiles>  (462) 
CC1(C=CC2=C(O1)C3=C(C4=C2OC(C=C4)(C)C)OC(=O)C=C3)C

>  <Chemical class>  (462) 
5,7-Dioxygenated Coumarins

>  <Natural source>  (462) 
Zanthoxylum dipetalum

>  <Molecular Formula>  (462) 
C19H18O4

>  <InChI-Key>  (462) 
BHLCTWNBGOOKAJ-UHFFFAOYSA-N

>  <Total Molweight>  (462) 
310.348

>  <cLogP>  (462) 
3.5508

>  <cLogS>  (462) 
-4.888

>  <H-Acceptors>  (462) 
4

>  <H-Donors>  (462) 
0

>  <Rotatable Bonds>  (462) 
0

>  <Polar Surface Area>  (462) 
44.76

$$$$
CDB0463
     RDKit          3D

 37 41  0  0  0  0  0  0  0  0999 V2000
    1.7733    3.6833   -0.3870 C   0  0  0  0  0  0  0  0  0  0  0  0
    1.9084    2.2787   -0.2037 O   0  0  0  0  0  0  0  0  0  0  0  0
    0.7728    1.5103   -0.2559 C   0  0  0  0  0  0  0  0  0  0  0  0
    0.9329    0.1138   -0.0482 C   0  0  0  0  0  0  0  0  0  0  0  0
    2.2045   -0.5682    0.2176 C   0  0  0  0  0  0  0  0  0  0  0  0
    2.2244   -1.8928    0.4049 C   0  0  0  0  0  0  0  0  0  0  0  0
    3.6243   -2.2573    0.6434 C   0  0  0  0  0  0  0  0  0  0  0  0
    4.0279   -3.3897    0.8553 O   0  0  0  0  0  0  0  0  0  0  0  0
    4.5182   -1.0534    0.5947 C   0  0  0  0  0  0  0  0  0  0  0  0
    3.5466    0.0852    0.3077 C   0  0  0  0  0  0  0  0  0  0  0  0
    1.0546   -2.7619    0.3695 C   0  0  0  0  0  0  0  0  0  0  0  0
    1.0871   -3.9708    0.5445 O   0  0  0  0  0  0  0  0  0  0  0  0
   -0.1445   -2.0990    0.1132 O   0  0  0  0  0  0  0  0  0  0  0  0
   -0.2091   -0.7052   -0.0913 C   0  0  0  0  0  0  0  0  0  0  0  0
   -1.4569   -0.1681   -0.3356 C   0  0  0  0  0  0  0  0  0  0  0  0
   -2.7850   -0.8110   -0.3985 C   0  0  0  0  0  0  0  0  0  0  0  0
   -3.3904   -1.1715    0.9395 C   0  0  0  0  0  0  0  0  0  0  0  0
   -4.8327   -0.7604    0.7609 C   0  0  0  0  0  0  0  0  0  0  0  0
   -4.8183    0.4164   -0.0517 O   0  0  0  0  0  0  0  0  0  0  0  0
   -3.6398    0.3746   -0.8686 C   0  0  0  0  0  0  0  0  0  0  0  0
   -2.8773    1.5995   -0.7490 O   0  0  0  0  0  0  0  0  0  0  0  0
   -1.5887    1.1884   -0.5381 C   0  0  0  0  0  0  0  0  0  0  0  0
   -0.5041    2.0436   -0.4993 C   0  0  0  0  0  0  0  0  0  0  0  0
    1.1478    4.1253    0.3954 H   0  0  0  0  0  0  0  0  0  0  0  0
    2.7704    4.1268   -0.3048 H   0  0  0  0  0  0  0  0  0  0  0  0
    1.3879    3.9155   -1.3851 H   0  0  0  0  0  0  0  0  0  0  0  0
    5.2545   -1.1643   -0.2064 H   0  0  0  0  0  0  0  0  0  0  0  0
    5.0208   -0.9192    1.5568 H   0  0  0  0  0  0  0  0  0  0  0  0
    3.5844    0.8211    1.1182 H   0  0  0  0  0  0  0  0  0  0  0  0
    3.8189    0.5810   -0.6304 H   0  0  0  0  0  0  0  0  0  0  0  0
   -2.8333   -1.6375   -1.1150 H   0  0  0  0  0  0  0  0  0  0  0  0
   -3.2802   -2.2305    1.1906 H   0  0  0  0  0  0  0  0  0  0  0  0
   -2.9394   -0.5898    1.7534 H   0  0  0  0  0  0  0  0  0  0  0  0
   -5.3313   -0.5479    1.7105 H   0  0  0  0  0  0  0  0  0  0  0  0
   -5.4025   -1.5325    0.2319 H   0  0  0  0  0  0  0  0  0  0  0  0
   -3.9448    0.2667   -1.9166 H   0  0  0  0  0  0  0  0  0  0  0  0
   -0.6815    3.1007   -0.6581 H   0  0  0  0  0  0  0  0  0  0  0  0
  1  2  1  0
  2  3  1  0
  3  4  1  0
  4  5  1  0
  5  6  2  0
  6  7  1  0
  7  8  2  0
  7  9  1  0
  9 10  1  0
  6 11  1  0
 11 12  2  0
 11 13  1  0
 13 14  1  0
 14 15  1  0
 15 16  1  0
 16 17  1  0
 17 18  1  0
 18 19  1  0
 19 20  1  0
 20 21  1  0
 21 22  1  0
 22 23  1  0
 23  3  2  0
 14  4  2  0
 10  5  1  0
 22 15  2  0
 20 16  1  0
  1 24  1  0
  1 25  1  0
  1 26  1  0
  9 27  1  0
  9 28  1  0
 10 29  1  0
 10 30  1  0
 16 31  1  0
 17 32  1  0
 17 33  1  0
 18 34  1  0
 18 35  1  0
 20 36  1  0
 23 37  1  0
M  END
>  <Name>  (463) 
Aflatoxin B2

>  <PubChem ID>  (463) 
2724360

>  <CDB ID>  (463) 
CDB0463

>  <Smiles>  (463) 
COC1=C2C3=C(C(=O)CC3)C(=O)OC2=C4C5CCOC5OC4=C1

>  <Chemical class>  (463) 
5,7-Dioxygenated Coumarins

>  <Natural source>  (463) 
Aspergillus flavus

>  <Molecular Formula>  (463) 
C17H14O6

>  <InChI-Key>  (463) 
WWSYXEZEXMQWHT-UHFFFAOYSA-N

>  <Total Molweight>  (463) 
314.292

>  <cLogP>  (463) 
1.9021

>  <cLogS>  (463) 
-3.042

>  <H-Acceptors>  (463) 
6

>  <H-Donors>  (463) 
0

>  <Rotatable Bonds>  (463) 
1

>  <Polar Surface Area>  (463) 
71.06

$$$$
CDB0464
     RDKit          3D

 35 39  0  0  0  0  0  0  0  0999 V2000
    1.4081    3.5698    0.9079 C   0  0  0  0  0  0  0  0  0  0  0  0
    1.5825    2.1923    0.5966 O   0  0  0  0  0  0  0  0  0  0  0  0
    0.4632    1.4028    0.5184 C   0  0  0  0  0  0  0  0  0  0  0  0
    0.6600    0.0437    0.1564 C   0  0  0  0  0  0  0  0  0  0  0  0
    1.9547   -0.5791   -0.1419 C   0  0  0  0  0  0  0  0  0  0  0  0
    2.0120   -1.8747   -0.4710 C   0  0  0  0  0  0  0  0  0  0  0  0
    3.4264   -2.1816   -0.7052 C   0  0  0  0  0  0  0  0  0  0  0  0
    3.8632   -3.2760   -1.0240 O   0  0  0  0  0  0  0  0  0  0  0  0
    4.2888   -0.9708   -0.5030 C   0  0  0  0  0  0  0  0  0  0  0  0
    3.2829    0.1079   -0.1196 C   0  0  0  0  0  0  0  0  0  0  0  0
    0.8633   -2.7668   -0.5645 C   0  0  0  0  0  0  0  0  0  0  0  0
    0.9298   -3.9495   -0.8645 O   0  0  0  0  0  0  0  0  0  0  0  0
   -0.3578   -2.1598   -0.2766 O   0  0  0  0  0  0  0  0  0  0  0  0
   -0.4651   -0.7956    0.0682 C   0  0  0  0  0  0  0  0  0  0  0  0
   -1.7349   -0.3129    0.3225 C   0  0  0  0  0  0  0  0  0  0  0  0
   -3.0451   -0.9996    0.2952 C   0  0  0  0  0  0  0  0  0  0  0  0
   -3.5502   -1.3718   -1.0461 C   0  0  0  0  0  0  0  0  0  0  0  0
   -4.5690   -0.5788   -1.3572 C   0  0  0  0  0  0  0  0  0  0  0  0
   -4.9099    0.3817   -0.4299 O   0  0  0  0  0  0  0  0  0  0  0  0
   -3.9791    0.1786    0.6634 C   0  0  0  0  0  0  0  0  0  0  0  0
   -3.1976    1.3759    0.9111 O   0  0  0  0  0  0  0  0  0  0  0  0
   -1.9006    1.0084    0.6776 C   0  0  0  0  0  0  0  0  0  0  0  0
   -0.8317    1.8792    0.7822 C   0  0  0  0  0  0  0  0  0  0  0  0
    0.9877    3.6965    1.9109 H   0  0  0  0  0  0  0  0  0  0  0  0
    0.7955    4.0717    0.1519 H   0  0  0  0  0  0  0  0  0  0  0  0
    2.3961    4.0401    0.9004 H   0  0  0  0  0  0  0  0  0  0  0  0
    5.0087   -1.1520    0.3003 H   0  0  0  0  0  0  0  0  0  0  0  0
    4.8103   -0.7217   -1.4315 H   0  0  0  0  0  0  0  0  0  0  0  0
    3.3248    0.9308   -0.8414 H   0  0  0  0  0  0  0  0  0  0  0  0
    3.5181    0.5007    0.8756 H   0  0  0  0  0  0  0  0  0  0  0  0
   -3.1095   -1.8129    1.0241 H   0  0  0  0  0  0  0  0  0  0  0  0
   -3.1592   -2.1672   -1.6628 H   0  0  0  0  0  0  0  0  0  0  0  0
   -5.1683   -0.5754   -2.2532 H   0  0  0  0  0  0  0  0  0  0  0  0
   -4.5629   -0.0397    1.5663 H   0  0  0  0  0  0  0  0  0  0  0  0
   -1.0354    2.9056    1.0637 H   0  0  0  0  0  0  0  0  0  0  0  0
  1  2  1  0
  2  3  1  0
  3  4  1  0
  4  5  1  0
  5  6  2  0
  6  7  1  0
  7  8  2  0
  7  9  1  0
  9 10  1  0
  6 11  1  0
 11 12  2  0
 11 13  1  0
 13 14  1  0
 14 15  1  0
 15 16  1  0
 16 17  1  0
 17 18  2  0
 18 19  1  0
 19 20  1  0
 20 21  1  0
 21 22  1  0
 22 23  1  0
 23  3  2  0
 14  4  2  0
 10  5  1  0
 22 15  2  0
 20 16  1  0
  1 24  1  0
  1 25  1  0
  1 26  1  0
  9 27  1  0
  9 28  1  0
 10 29  1  0
 10 30  1  0
 16 31  1  0
 17 32  1  0
 18 33  1  0
 20 34  1  0
 23 35  1  0
M  END
>  <Name>  (464) 
Aflatoxin B1

>  <PubChem ID>  (464) 
186907

>  <CDB ID>  (464) 
CDB0464

>  <Smiles>  (464) 
COC1=C2C3=C(C(=O)CC3)C(=O)OC2=C4C5C=COC5OC4=C1

>  <Chemical class>  (464) 
5,7-Dioxygenated Coumarins

>  <Natural source>  (464) 
Aspergillus flavus

>  <Molecular Formula>  (464) 
C17H12O6

>  <InChI-Key>  (464) 
OQIQSTLJSLGHID-UHFFFAOYSA-N

>  <Total Molweight>  (464) 
312.276

>  <cLogP>  (464) 
1.6346

>  <cLogS>  (464) 
-3.266

>  <H-Acceptors>  (464) 
6

>  <H-Donors>  (464) 
0

>  <Rotatable Bonds>  (464) 
1

>  <Polar Surface Area>  (464) 
71.06

$$$$
CDB0465
     RDKit          3D

 38 42  0  0  0  0  0  0  0  0999 V2000
   -1.9025    3.2775   -1.5221 C   0  0  0  0  0  0  0  0  0  0  0  0
   -1.9942    2.0365   -0.8323 O   0  0  0  0  0  0  0  0  0  0  0  0
   -0.8857    1.2276   -0.8143 C   0  0  0  0  0  0  0  0  0  0  0  0
   -0.9774    0.0286   -0.0581 C   0  0  0  0  0  0  0  0  0  0  0  0
   -2.1516   -0.4081    0.7058 C   0  0  0  0  0  0  0  0  0  0  0  0
   -2.1204   -1.5679    1.3720 C   0  0  0  0  0  0  0  0  0  0  0  0
   -3.4262   -1.7076    2.0235 C   0  0  0  0  0  0  0  0  0  0  0  0
   -3.7670   -2.6520    2.7182 O   0  0  0  0  0  0  0  0  0  0  0  0
   -4.3111   -0.5320    1.7309 C   0  0  0  0  0  0  0  0  0  0  0  0
   -3.4411    0.3383    0.8320 C   0  0  0  0  0  0  0  0  0  0  0  0
   -0.9858   -2.4819    1.4097 C   0  0  0  0  0  0  0  0  0  0  0  0
   -0.9755   -3.5444    2.0137 O   0  0  0  0  0  0  0  0  0  0  0  0
    0.1209   -2.0515    0.6812 O   0  0  0  0  0  0  0  0  0  0  0  0
    0.1372   -0.8288   -0.0226 C   0  0  0  0  0  0  0  0  0  0  0  0
    1.3009   -0.5089   -0.6945 C   0  0  0  0  0  0  0  0  0  0  0  0
    2.5797   -1.2494   -0.8229 C   0  0  0  0  0  0  0  0  0  0  0  0
    3.3694   -1.4995    0.4419 C   0  0  0  0  0  0  0  0  0  0  0  0
    4.1376   -0.2073    0.6390 C   0  0  0  0  0  0  0  0  0  0  0  0
    4.4059    0.3160   -0.6540 O   0  0  0  0  0  0  0  0  0  0  0  0
    3.4168   -0.1971   -1.5613 C   0  0  0  0  0  0  0  0  0  0  0  0
    2.5620    0.8587   -2.0559 O   0  0  0  0  0  0  0  0  0  0  0  0
    1.3638    0.6574   -1.4258 C   0  0  0  0  0  0  0  0  0  0  0  0
    0.2975    1.5329   -1.5069 C   0  0  0  0  0  0  0  0  0  0  0  0
    3.3543    0.7199    1.3625 O   0  0  0  0  0  0  0  0  0  0  0  0
   -1.7479    3.1210   -2.5945 H   0  0  0  0  0  0  0  0  0  0  0  0
   -1.1193    3.9117   -1.0941 H   0  0  0  0  0  0  0  0  0  0  0  0
   -2.8566    3.7986   -1.3972 H   0  0  0  0  0  0  0  0  0  0  0  0
   -4.5698   -0.0165    2.6603 H   0  0  0  0  0  0  0  0  0  0  0  0
   -5.2170   -0.8622    1.2147 H   0  0  0  0  0  0  0  0  0  0  0  0
   -3.2962    1.3221    1.2914 H   0  0  0  0  0  0  0  0  0  0  0  0
   -3.9270    0.4724   -0.1405 H   0  0  0  0  0  0  0  0  0  0  0  0
    2.4242   -2.1532   -1.4211 H   0  0  0  0  0  0  0  0  0  0  0  0
    4.0833   -2.3093    0.2482 H   0  0  0  0  0  0  0  0  0  0  0  0
    2.7564   -1.7724    1.3054 H   0  0  0  0  0  0  0  0  0  0  0  0
    5.0748   -0.3705    1.1799 H   0  0  0  0  0  0  0  0  0  0  0  0
    3.9492   -0.6338   -2.4136 H   0  0  0  0  0  0  0  0  0  0  0  0
    0.4182    2.4304   -2.1013 H   0  0  0  0  0  0  0  0  0  0  0  0
    3.9202    1.5047    1.4561 H   0  0  0  0  0  0  0  0  0  0  0  0
  1  2  1  0
  2  3  1  0
  3  4  1  0
  4  5  1  0
  5  6  2  0
  6  7  1  0
  7  8  2  0
  7  9  1  0
  9 10  1  0
  6 11  1  0
 11 12  2  0
 11 13  1  0
 13 14  1  0
 14 15  1  0
 15 16  1  0
 16 17  1  0
 17 18  1  0
 18 19  1  0
 19 20  1  0
 20 21  1  0
 21 22  1  0
 22 23  1  0
 18 24  1  0
 23  3  2  0
 14  4  2  0
 10  5  1  0
 22 15  2  0
 20 16  1  0
  1 25  1  0
  1 26  1  0
  1 27  1  0
  9 28  1  0
  9 29  1  0
 10 30  1  0
 10 31  1  0
 16 32  1  0
 17 33  1  0
 17 34  1  0
 18 35  1  0
 20 36  1  0
 23 37  1  0
 24 38  1  0
M  END
>  <Name>  (465) 
Aflatoxin B2A

>  <PubChem ID>  (465) 
104825

>  <CDB ID>  (465) 
CDB0465

>  <Smiles>  (465) 
COC1=C2C3=C(C(=O)CC3)C(=O)OC2=C4C5CC(OC5OC4=C1)O

>  <Chemical class>  (465) 
5,7-Dioxygenated Coumarins

>  <Natural source>  (465) 
Aspergillus fiavus

>  <Molecular Formula>  (465) 
C17H14O7

>  <InChI-Key>  (465) 
PFQSKXVNBUHPIW-UHFFFAOYSA-N

>  <Total Molweight>  (465) 
330.291

>  <cLogP>  (465) 
1.5516

>  <cLogS>  (465) 
-2.856

>  <H-Acceptors>  (465) 
7

>  <H-Donors>  (465) 
1

>  <Rotatable Bonds>  (465) 
1

>  <Polar Surface Area>  (465) 
91.29

$$$$
CDB0466
     RDKit          3D

 38 42  0  0  0  0  0  0  0  0999 V2000
   -2.0550    3.3855   -1.2666 C   0  0  0  0  0  0  0  0  0  0  0  0
   -2.0673    2.0497   -0.7757 O   0  0  0  0  0  0  0  0  0  0  0  0
   -0.8715    1.4884   -0.4061 C   0  0  0  0  0  0  0  0  0  0  0  0
   -0.9135    0.1618    0.0981 C   0  0  0  0  0  0  0  0  0  0  0  0
   -2.1257   -0.6494    0.2601 C   0  0  0  0  0  0  0  0  0  0  0  0
   -2.0390   -1.8879    0.7585 C   0  0  0  0  0  0  0  0  0  0  0  0
   -3.4044   -2.4206    0.7895 C   0  0  0  0  0  0  0  0  0  0  0  0
   -3.7125   -3.5339    1.1840 O   0  0  0  0  0  0  0  0  0  0  0  0
   -4.3932   -1.4198    0.2688 C   0  0  0  0  0  0  0  0  0  0  0  0
   -3.5173   -0.2239   -0.0863 C   0  0  0  0  0  0  0  0  0  0  0  0
   -0.8033   -2.5370    1.1761 C   0  0  0  0  0  0  0  0  0  0  0  0
   -0.7326   -3.6677    1.6330 O   0  0  0  0  0  0  0  0  0  0  0  0
    0.3391   -1.7536    1.0142 O   0  0  0  0  0  0  0  0  0  0  0  0
    0.2945   -0.4459    0.4857 C   0  0  0  0  0  0  0  0  0  0  0  0
    1.4986    0.2238    0.3753 C   0  0  0  0  0  0  0  0  0  0  0  0
    1.5121    1.5120   -0.1144 C   0  0  0  0  0  0  0  0  0  0  0  0
    0.3565    2.1622   -0.5066 C   0  0  0  0  0  0  0  0  0  0  0  0
    2.7541    2.0822   -0.1751 O   0  0  0  0  0  0  0  0  0  0  0  0
    3.6725    1.0235    0.1974 C   0  0  0  0  0  0  0  0  0  0  0  0
    2.8767   -0.1913    0.7353 C   0  0  0  0  0  0  0  0  0  0  0  0
    3.4691   -1.3575   -0.0250 C   0  0  0  0  0  0  0  0  0  0  0  0
    3.9460   -0.7194   -1.3107 C   0  0  0  0  0  0  0  0  0  0  0  0
    4.4180    0.5836   -0.9575 O   0  0  0  0  0  0  0  0  0  0  0  0
    2.9786   -0.3676    2.1400 O   0  0  0  0  0  0  0  0  0  0  0  0
   -1.4738    3.4603   -2.1913 H   0  0  0  0  0  0  0  0  0  0  0  0
   -3.0874    3.6634   -1.5000 H   0  0  0  0  0  0  0  0  0  0  0  0
   -1.6872    4.0822   -0.5063 H   0  0  0  0  0  0  0  0  0  0  0  0
   -5.1192   -1.1686    1.0473 H   0  0  0  0  0  0  0  0  0  0  0  0
   -4.9035   -1.8192   -0.6123 H   0  0  0  0  0  0  0  0  0  0  0  0
   -3.8286    0.6515    0.4940 H   0  0  0  0  0  0  0  0  0  0  0  0
   -3.6157    0.0076   -1.1524 H   0  0  0  0  0  0  0  0  0  0  0  0
    0.4440    3.1749   -0.8825 H   0  0  0  0  0  0  0  0  0  0  0  0
    4.3805    1.4248    0.9307 H   0  0  0  0  0  0  0  0  0  0  0  0
    4.3271   -1.7618    0.5265 H   0  0  0  0  0  0  0  0  0  0  0  0
    2.7760   -2.1847   -0.2031 H   0  0  0  0  0  0  0  0  0  0  0  0
    4.7531   -1.2859   -1.7835 H   0  0  0  0  0  0  0  0  0  0  0  0
    3.1306   -0.6084   -2.0341 H   0  0  0  0  0  0  0  0  0  0  0  0
    2.4235   -1.1330    2.3751 H   0  0  0  0  0  0  0  0  0  0  0  0
  1  2  1  0
  2  3  1  0
  3  4  1  0
  4  5  1  0
  5  6  2  0
  6  7  1  0
  7  8  2  0
  7  9  1  0
  9 10  1  0
  6 11  1  0
 11 12  2  0
 11 13  1  0
 13 14  1  0
 14 15  1  0
 15 16  2  0
 16 17  1  0
 16 18  1  0
 18 19  1  0
 19 20  1  0
 20 21  1  0
 21 22  1  0
 22 23  1  0
 20 24  1  0
 17  3  2  0
 14  4  2  0
 10  5  1  0
 20 15  1  0
 23 19  1  0
  1 25  1  0
  1 26  1  0
  1 27  1  0
  9 28  1  0
  9 29  1  0
 10 30  1  0
 10 31  1  0
 17 32  1  0
 19 33  1  0
 21 34  1  0
 21 35  1  0
 22 36  1  0
 22 37  1  0
 24 38  1  0
M  END
>  <Name>  (466) 
Aflatoxin M2

>  <PubChem ID>  (466) 
23318

>  <CDB ID>  (466) 
CDB0466

>  <Smiles>  (466) 
COC1=C2C3=C(C(=O)CC3)C(=O)OC2=C4C(=C1)OC5C4(CCO5)O

>  <Chemical class>  (466) 
5,7-Dioxygenated Coumarins

>  <Natural source>  (466) 
Aspergillus fiavus

>  <Molecular Formula>  (466) 
C17H14O7

>  <InChI-Key>  (466) 
OQLKWHFMUPJCJY-UHFFFAOYSA-N

>  <Total Molweight>  (466) 
330.291

>  <cLogP>  (466) 
0.8897

>  <cLogS>  (466) 
-2.54

>  <H-Acceptors>  (466) 
7

>  <H-Donors>  (466) 
1

>  <Rotatable Bonds>  (466) 
1

>  <Polar Surface Area>  (466) 
91.29

$$$$
CDB0467
     RDKit          3D

 36 40  0  0  0  0  0  0  0  0999 V2000
   -1.7395    3.6370    0.0417 C   0  0  0  0  0  0  0  0  0  0  0  0
   -1.8040    2.2291   -0.1555 O   0  0  0  0  0  0  0  0  0  0  0  0
   -0.6254    1.5278   -0.1867 C   0  0  0  0  0  0  0  0  0  0  0  0
   -0.7189    0.1239   -0.3769 C   0  0  0  0  0  0  0  0  0  0  0  0
   -1.9659   -0.6321   -0.5416 C   0  0  0  0  0  0  0  0  0  0  0  0
   -1.9252   -1.9579   -0.7165 C   0  0  0  0  0  0  0  0  0  0  0  0
   -3.3158   -2.4035   -0.8458 C   0  0  0  0  0  0  0  0  0  0  0  0
   -3.6672   -3.5598   -1.0170 O   0  0  0  0  0  0  0  0  0  0  0  0
   -4.2707   -1.2512   -0.7405 C   0  0  0  0  0  0  0  0  0  0  0  0
   -3.3465   -0.0567   -0.5347 C   0  0  0  0  0  0  0  0  0  0  0  0
   -0.7089   -2.7587   -0.7632 C   0  0  0  0  0  0  0  0  0  0  0  0
   -0.6796   -3.9689   -0.9266 O   0  0  0  0  0  0  0  0  0  0  0  0
    0.4670   -2.0256   -0.6052 O   0  0  0  0  0  0  0  0  0  0  0  0
    0.4697   -0.6271   -0.4135 C   0  0  0  0  0  0  0  0  0  0  0  0
    1.7032   -0.0202   -0.2667 C   0  0  0  0  0  0  0  0  0  0  0  0
    1.7684    1.3455   -0.0857 C   0  0  0  0  0  0  0  0  0  0  0  0
    0.6330    2.1346   -0.0419 C   0  0  0  0  0  0  0  0  0  0  0  0
    3.0345    1.8482    0.0502 O   0  0  0  0  0  0  0  0  0  0  0  0
    3.9136    0.6931   -0.0449 C   0  0  0  0  0  0  0  0  0  0  0  0
    3.0670   -0.5942   -0.2674 C   0  0  0  0  0  0  0  0  0  0  0  0
    3.4458   -1.4086    0.9069 C   0  0  0  0  0  0  0  0  0  0  0  0
    4.3220   -0.7284    1.6388 C   0  0  0  0  0  0  0  0  0  0  0  0
    4.6661    0.5285    1.1884 O   0  0  0  0  0  0  0  0  0  0  0  0
    3.3665   -1.2721   -1.4725 O   0  0  0  0  0  0  0  0  0  0  0  0
   -1.2942    3.8795    1.0121 H   0  0  0  0  0  0  0  0  0  0  0  0
   -1.2023    4.1258   -0.7775 H   0  0  0  0  0  0  0  0  0  0  0  0
   -2.7645    4.0200    0.0418 H   0  0  0  0  0  0  0  0  0  0  0  0
   -4.9388   -1.3937    0.1136 H   0  0  0  0  0  0  0  0  0  0  0  0
   -4.8491   -1.1569   -1.6640 H   0  0  0  0  0  0  0  0  0  0  0  0
   -3.4868    0.6674   -1.3447 H   0  0  0  0  0  0  0  0  0  0  0  0
   -3.5758    0.4326    0.4182 H   0  0  0  0  0  0  0  0  0  0  0  0
    0.7584    3.2010    0.1058 H   0  0  0  0  0  0  0  0  0  0  0  0
    4.6271    0.8707   -0.8590 H   0  0  0  0  0  0  0  0  0  0  0  0
    3.0801   -2.3989    1.1287 H   0  0  0  0  0  0  0  0  0  0  0  0
    4.8050   -1.0257    2.5557 H   0  0  0  0  0  0  0  0  0  0  0  0
    2.7515   -2.0244   -1.5307 H   0  0  0  0  0  0  0  0  0  0  0  0
  1  2  1  0
  2  3  1  0
  3  4  1  0
  4  5  1  0
  5  6  2  0
  6  7  1  0
  7  8  2  0
  7  9  1  0
  9 10  1  0
  6 11  1  0
 11 12  2  0
 11 13  1  0
 13 14  1  0
 14 15  1  0
 15 16  2  0
 16 17  1  0
 16 18  1  0
 18 19  1  0
 19 20  1  0
 20 21  1  0
 21 22  2  0
 22 23  1  0
 20 24  1  0
 17  3  2  0
 14  4  2  0
 10  5  1  0
 20 15  1  0
 23 19  1  0
  1 25  1  0
  1 26  1  0
  1 27  1  0
  9 28  1  0
  9 29  1  0
 10 30  1  0
 10 31  1  0
 17 32  1  0
 19 33  1  0
 21 34  1  0
 22 35  1  0
 24 36  1  0
M  END
>  <Name>  (467) 
Aflatoxin M1

>  <PubChem ID>  (467) 
15558498

>  <CDB ID>  (467) 
CDB0467

>  <Smiles>  (467) 
COC1=C2C3=C(C(=O)CC3)C(=O)OC2=C4C(=C1)OC5C4(C=CO5)O

>  <Chemical class>  (467) 
5,7-Dioxygenated Coumarins

>  <Natural source>  (467) 
Aspergillus fiavus

>  <Molecular Formula>  (467) 
C17H12O7

>  <InChI-Key>  (467) 
MJBWDEQAUQTVKK-UHFFFAOYSA-N

>  <Total Molweight>  (467) 
328.275

>  <cLogP>  (467) 
0.6222

>  <cLogS>  (467) 
-2.764

>  <H-Acceptors>  (467) 
7

>  <H-Donors>  (467) 
1

>  <Rotatable Bonds>  (467) 
1

>  <Polar Surface Area>  (467) 
91.29

$$$$
CDB0468
     RDKit          3D

 39 43  0  0  0  0  0  0  0  0999 V2000
   -2.6764   -3.1278   -1.0579 C   0  0  0  0  0  0  0  0  0  0  0  0
   -2.4888   -1.8401   -0.4818 O   0  0  0  0  0  0  0  0  0  0  0  0
   -1.2037   -1.4058   -0.2783 C   0  0  0  0  0  0  0  0  0  0  0  0
   -1.0452   -0.1177    0.2972 C   0  0  0  0  0  0  0  0  0  0  0  0
   -2.1375    0.7786    0.6936 C   0  0  0  0  0  0  0  0  0  0  0  0
   -1.8609    1.9671    1.2420 C   0  0  0  0  0  0  0  0  0  0  0  0
   -3.1500    2.6078    1.5193 C   0  0  0  0  0  0  0  0  0  0  0  0
   -3.2889    3.7105    2.0239 O   0  0  0  0  0  0  0  0  0  0  0  0
   -4.2955    1.7341    1.1011 C   0  0  0  0  0  0  0  0  0  0  0  0
   -3.5992    0.4964    0.5472 C   0  0  0  0  0  0  0  0  0  0  0  0
   -0.5209    2.4795    1.4965 C   0  0  0  0  0  0  0  0  0  0  0  0
   -0.2756    3.5614    2.0075 O   0  0  0  0  0  0  0  0  0  0  0  0
    0.5057    1.6197    1.1053 O   0  0  0  0  0  0  0  0  0  0  0  0
    0.2589    0.3601    0.5191 C   0  0  0  0  0  0  0  0  0  0  0  0
    1.3648   -0.3974    0.1816 C   0  0  0  0  0  0  0  0  0  0  0  0
    1.1840   -1.6469   -0.3707 C   0  0  0  0  0  0  0  0  0  0  0  0
   -0.0733   -2.1710   -0.6084 C   0  0  0  0  0  0  0  0  0  0  0  0
    2.3438   -2.3120   -0.6596 O   0  0  0  0  0  0  0  0  0  0  0  0
    3.4055   -1.3688   -0.3673 C   0  0  0  0  0  0  0  0  0  0  0  0
    2.8137   -0.1190    0.3339 C   0  0  0  0  0  0  0  0  0  0  0  0
    3.3863    1.0279   -0.4653 C   0  0  0  0  0  0  0  0  0  0  0  0
    3.6001    0.4000   -1.8260 C   0  0  0  0  0  0  0  0  0  0  0  0
    4.0331   -0.9330   -1.5900 O   0  0  0  0  0  0  0  0  0  0  0  0
    4.5676    1.0965   -2.5766 O   0  0  0  0  0  0  0  0  0  0  0  0
    3.1534   -0.0235    1.7088 O   0  0  0  0  0  0  0  0  0  0  0  0
   -3.7537   -3.2996   -1.1445 H   0  0  0  0  0  0  0  0  0  0  0  0
   -2.2657   -3.9119   -0.4135 H   0  0  0  0  0  0  0  0  0  0  0  0
   -2.2504   -3.1752   -2.0654 H   0  0  0  0  0  0  0  0  0  0  0  0
   -4.8907    2.2370    0.3337 H   0  0  0  0  0  0  0  0  0  0  0  0
   -4.9183    1.4907    1.9665 H   0  0  0  0  0  0  0  0  0  0  0  0
   -3.8793    0.3479   -0.5014 H   0  0  0  0  0  0  0  0  0  0  0  0
   -3.8994   -0.3878    1.1200 H   0  0  0  0  0  0  0  0  0  0  0  0
   -0.1395   -3.1603   -1.0465 H   0  0  0  0  0  0  0  0  0  0  0  0
    4.1591   -1.8792    0.2424 H   0  0  0  0  0  0  0  0  0  0  0  0
    2.7461    1.9141   -0.5169 H   0  0  0  0  0  0  0  0  0  0  0  0
    4.3420    1.3572   -0.0374 H   0  0  0  0  0  0  0  0  0  0  0  0
    2.6704    0.3711   -2.4054 H   0  0  0  0  0  0  0  0  0  0  0  0
    5.4075    0.9797   -2.1028 H   0  0  0  0  0  0  0  0  0  0  0  0
    2.6709    0.7397    2.0762 H   0  0  0  0  0  0  0  0  0  0  0  0
  1  2  1  0
  2  3  1  0
  3  4  1  0
  4  5  1  0
  5  6  2  0
  6  7  1  0
  7  8  2  0
  7  9  1  0
  9 10  1  0
  6 11  1  0
 11 12  2  0
 11 13  1  0
 13 14  1  0
 14 15  1  0
 15 16  2  0
 16 17  1  0
 16 18  1  0
 18 19  1  0
 19 20  1  0
 20 21  1  0
 21 22  1  0
 22 23  1  0
 22 24  1  0
 20 25  1  0
 17  3  2  0
 14  4  2  0
 10  5  1  0
 20 15  1  0
 23 19  1  0
  1 26  1  0
  1 27  1  0
  1 28  1  0
  9 29  1  0
  9 30  1  0
 10 31  1  0
 10 32  1  0
 17 33  1  0
 19 34  1  0
 21 35  1  0
 21 36  1  0
 22 37  1  0
 24 38  1  0
 25 39  1  0
M  END
>  <Name>  (468) 
Aflatoxin M2A

>  <PubChem ID>  (468) 
148014

>  <CDB ID>  (468) 
CDB0468

>  <Smiles>  (468) 
COC1=C2C3=C(C(=O)CC3)C(=O)OC2=C4C(=C1)OC5C4(CC(O5)O)O

>  <Chemical class>  (468) 
5,7-Dioxygenated Coumarins

>  <Natural source>  (468) 
Aspergillus fiavus

>  <Molecular Formula>  (468) 
C17H14O8

>  <InChI-Key>  (468) 
JHYYYOLGLPXKOI-UHFFFAOYSA-N

>  <Total Molweight>  (468) 
346.29

>  <cLogP>  (468) 
0.5392

>  <cLogS>  (468) 
-2.354

>  <H-Acceptors>  (468) 
8

>  <H-Donors>  (468) 
2

>  <Rotatable Bonds>  (468) 
1

>  <Polar Surface Area>  (468) 
111.52

$$$$
CDB0469
     RDKit          3D

 38 42  0  0  0  0  0  0  0  0999 V2000
    2.2896   -2.9686   -1.6703 C   0  0  0  0  0  0  0  0  0  0  0  0
    2.1851   -1.7169   -1.0011 O   0  0  0  0  0  0  0  0  0  0  0  0
    0.9330   -1.2110   -0.7540 C   0  0  0  0  0  0  0  0  0  0  0  0
    0.8578    0.0758   -0.1413 C   0  0  0  0  0  0  0  0  0  0  0  0
    2.0059    0.8916    0.3301 C   0  0  0  0  0  0  0  0  0  0  0  0
    1.8218    2.1775    0.7041 C   0  0  0  0  0  0  0  0  0  0  0  0
    3.0054    3.0404    0.9671 C   0  0  0  0  0  0  0  0  0  0  0  0
    2.9673    4.2607    0.8874 O   0  0  0  0  0  0  0  0  0  0  0  0
    4.1821    2.4174    1.2426 O   0  0  0  0  0  0  0  0  0  0  0  0
    4.1815    1.0125    1.4925 C   0  0  0  0  0  0  0  0  0  0  0  0
    3.3791    0.2830    0.4322 C   0  0  0  0  0  0  0  0  0  0  0  0
    0.4715    2.7728    0.8097 C   0  0  0  0  0  0  0  0  0  0  0  0
    0.2542    3.9123    1.1999 O   0  0  0  0  0  0  0  0  0  0  0  0
   -0.5945    1.9365    0.5151 O   0  0  0  0  0  0  0  0  0  0  0  0
   -0.4123    0.6440    0.0120 C   0  0  0  0  0  0  0  0  0  0  0  0
   -1.5573   -0.0385   -0.3548 C   0  0  0  0  0  0  0  0  0  0  0  0
   -2.9796    0.3483   -0.2493 C   0  0  0  0  0  0  0  0  0  0  0  0
   -3.5687    0.2619    1.1408 C   0  0  0  0  0  0  0  0  0  0  0  0
   -4.9196   -0.3612    0.8803 C   0  0  0  0  0  0  0  0  0  0  0  0
   -4.7318   -1.2912   -0.1897 O   0  0  0  0  0  0  0  0  0  0  0  0
   -3.6379   -0.8237   -0.9916 C   0  0  0  0  0  0  0  0  0  0  0  0
   -2.6628   -1.8713   -1.2077 O   0  0  0  0  0  0  0  0  0  0  0  0
   -1.4599   -1.2958   -0.9033 C   0  0  0  0  0  0  0  0  0  0  0  0
   -0.2391   -1.9007   -1.1144 C   0  0  0  0  0  0  0  0  0  0  0  0
    1.8403   -2.9229   -2.6676 H   0  0  0  0  0  0  0  0  0  0  0  0
    1.8518   -3.7732   -1.0706 H   0  0  0  0  0  0  0  0  0  0  0  0
    3.3538   -3.1903   -1.7958 H   0  0  0  0  0  0  0  0  0  0  0  0
    5.2210    0.6689    1.4785 H   0  0  0  0  0  0  0  0  0  0  0  0
    3.7896    0.8347    2.5014 H   0  0  0  0  0  0  0  0  0  0  0  0
    3.3443   -0.7629    0.7508 H   0  0  0  0  0  0  0  0  0  0  0  0
    3.8780    0.3492   -0.5415 H   0  0  0  0  0  0  0  0  0  0  0  0
   -3.2061    1.2999   -0.7412 H   0  0  0  0  0  0  0  0  0  0  0  0
   -3.6401    1.2332    1.6390 H   0  0  0  0  0  0  0  0  0  0  0  0
   -2.9765   -0.3987    1.7867 H   0  0  0  0  0  0  0  0  0  0  0  0
   -5.3204   -0.8802    1.7553 H   0  0  0  0  0  0  0  0  0  0  0  0
   -5.6475    0.3905    0.5553 H   0  0  0  0  0  0  0  0  0  0  0  0
   -4.0285   -0.5173   -1.9695 H   0  0  0  0  0  0  0  0  0  0  0  0
   -0.2305   -2.8867   -1.5634 H   0  0  0  0  0  0  0  0  0  0  0  0
  1  2  1  0
  2  3  1  0
  3  4  1  0
  4  5  1  0
  5  6  2  0
  6  7  1  0
  7  8  2  0
  7  9  1  0
  9 10  1  0
 10 11  1  0
  6 12  1  0
 12 13  2  0
 12 14  1  0
 14 15  1  0
 15 16  1  0
 16 17  1  0
 17 18  1  0
 18 19  1  0
 19 20  1  0
 20 21  1  0
 21 22  1  0
 22 23  1  0
 23 24  1  0
 24  3  2  0
 15  4  2  0
 11  5  1  0
 23 16  2  0
 21 17  1  0
  1 25  1  0
  1 26  1  0
  1 27  1  0
 10 28  1  0
 10 29  1  0
 11 30  1  0
 11 31  1  0
 17 32  1  0
 18 33  1  0
 18 34  1  0
 19 35  1  0
 19 36  1  0
 21 37  1  0
 24 38  1  0
M  END
>  <Name>  (469) 
Aflatoxin G2

>  <PubChem ID>  (469) 
2724362

>  <CDB ID>  (469) 
CDB0469

>  <Smiles>  (469) 
COC1=C2C3=C(C(=O)OCC3)C(=O)OC2=C4C5CCOC5OC4=C1

>  <Chemical class>  (469) 
5,7-Dioxygenated Coumarins

>  <Natural source>  (469) 
Aspergillus fiavus

>  <Molecular Formula>  (469) 
C17H14O7

>  <InChI-Key>  (469) 
WPCVRWVBBXIRMA-UHFFFAOYSA-N

>  <Total Molweight>  (469) 
330.291

>  <cLogP>  (469) 
1.2223

>  <cLogS>  (469) 
-2.753

>  <H-Acceptors>  (469) 
7

>  <H-Donors>  (469) 
0

>  <Rotatable Bonds>  (469) 
1

>  <Polar Surface Area>  (469) 
80.29

$$$$
CDB0470
     RDKit          3D

 36 40  0  0  0  0  0  0  0  0999 V2000
   -1.1936    2.9487    2.2998 C   0  0  0  0  0  0  0  0  0  0  0  0
   -1.4291    1.8340    1.4467 O   0  0  0  0  0  0  0  0  0  0  0  0
   -0.3712    1.3214    0.7377 C   0  0  0  0  0  0  0  0  0  0  0  0
   -0.5914    0.1088    0.0197 C   0  0  0  0  0  0  0  0  0  0  0  0
   -1.8810   -0.6186   -0.0969 C   0  0  0  0  0  0  0  0  0  0  0  0
   -1.9180   -1.8638   -0.6217 C   0  0  0  0  0  0  0  0  0  0  0  0
   -3.1733   -2.6585   -0.5359 C   0  0  0  0  0  0  0  0  0  0  0  0
   -3.1895   -3.8809   -0.5847 O   0  0  0  0  0  0  0  0  0  0  0  0
   -4.3309   -1.9750   -0.3316 O   0  0  0  0  0  0  0  0  0  0  0  0
   -4.3255   -0.5524   -0.4418 C   0  0  0  0  0  0  0  0  0  0  0  0
   -3.1649    0.0380    0.3355 C   0  0  0  0  0  0  0  0  0  0  0  0
   -0.7248   -2.4849   -1.2374 C   0  0  0  0  0  0  0  0  0  0  0  0
   -0.7240   -3.5856   -1.7722 O   0  0  0  0  0  0  0  0  0  0  0  0
    0.4258   -1.7114   -1.2639 O   0  0  0  0  0  0  0  0  0  0  0  0
    0.5129   -0.4755   -0.6126 C   0  0  0  0  0  0  0  0  0  0  0  0
    1.7581    0.1290   -0.6025 C   0  0  0  0  0  0  0  0  0  0  0  0
    3.0370   -0.3042   -1.2091 C   0  0  0  0  0  0  0  0  0  0  0  0
    3.6942   -1.4670   -0.5696 C   0  0  0  0  0  0  0  0  0  0  0  0
    4.7769   -1.0480    0.0751 C   0  0  0  0  0  0  0  0  0  0  0  0
    5.0359    0.3047    0.0339 O   0  0  0  0  0  0  0  0  0  0  0  0
    3.9585    0.8573   -0.7639 C   0  0  0  0  0  0  0  0  0  0  0  0
    3.1979    1.8332   -0.0057 O   0  0  0  0  0  0  0  0  0  0  0  0
    1.9293    1.3267    0.0523 C   0  0  0  0  0  0  0  0  0  0  0  0
    0.8937    1.9362    0.7299 C   0  0  0  0  0  0  0  0  0  0  0  0
   -2.1266    3.1644    2.8295 H   0  0  0  0  0  0  0  0  0  0  0  0
   -0.9292    3.8380    1.7188 H   0  0  0  0  0  0  0  0  0  0  0  0
   -0.4305    2.7202    3.0511 H   0  0  0  0  0  0  0  0  0  0  0  0
   -5.2738   -0.1812   -0.0395 H   0  0  0  0  0  0  0  0  0  0  0  0
   -4.2904   -0.2819   -1.5043 H   0  0  0  0  0  0  0  0  0  0  0  0
   -3.1735    1.1101    0.1180 H   0  0  0  0  0  0  0  0  0  0  0  0
   -3.3054   -0.1149    1.4118 H   0  0  0  0  0  0  0  0  0  0  0  0
    2.9807   -0.3842   -2.2987 H   0  0  0  0  0  0  0  0  0  0  0  0
    3.3534   -2.4898   -0.6308 H   0  0  0  0  0  0  0  0  0  0  0  0
    5.4870   -1.6276    0.6427 H   0  0  0  0  0  0  0  0  0  0  0  0
    4.4049    1.3685   -1.6258 H   0  0  0  0  0  0  0  0  0  0  0  0
    1.1005    2.8663    1.2459 H   0  0  0  0  0  0  0  0  0  0  0  0
  1  2  1  0
  2  3  1  0
  3  4  1  0
  4  5  1  0
  5  6  2  0
  6  7  1  0
  7  8  2  0
  7  9  1  0
  9 10  1  0
 10 11  1  0
  6 12  1  0
 12 13  2  0
 12 14  1  0
 14 15  1  0
 15 16  1  0
 16 17  1  0
 17 18  1  0
 18 19  2  0
 19 20  1  0
 20 21  1  0
 21 22  1  0
 22 23  1  0
 23 24  1  0
 24  3  2  0
 15  4  2  0
 11  5  1  0
 23 16  2  0
 21 17  1  0
  1 25  1  0
  1 26  1  0
  1 27  1  0
 10 28  1  0
 10 29  1  0
 11 30  1  0
 11 31  1  0
 17 32  1  0
 18 33  1  0
 19 34  1  0
 21 35  1  0
 24 36  1  0
M  END
>  <Name>  (470) 
Aflatoxin G1

>  <PubChem ID>  (470) 
14421

>  <CDB ID>  (470) 
CDB0470

>  <Smiles>  (470) 
COC1=C2C3=C(C(=O)OCC3)C(=O)OC2=C4C5C=COC5OC4=C1

>  <Chemical class>  (470) 
5,7-Dioxygenated Coumarins

>  <Natural source>  (470) 
Aspergillus fiavus

>  <Molecular Formula>  (470) 
C17H12O7

>  <InChI-Key>  (470) 
XWIYFDMXXLINPU-UHFFFAOYSA-N

>  <Total Molweight>  (470) 
328.275

>  <cLogP>  (470) 
0.9548

>  <cLogS>  (470) 
-2.977

>  <H-Acceptors>  (470) 
7

>  <H-Donors>  (470) 
0

>  <Rotatable Bonds>  (470) 
1

>  <Polar Surface Area>  (470) 
80.29

$$$$
CDB0471
     RDKit          3D

 39 43  0  0  0  0  0  0  0  0999 V2000
   -1.8569    3.4362    1.3545 C   0  0  0  0  0  0  0  0  0  0  0  0
   -1.9296    2.1478    0.7548 O   0  0  0  0  0  0  0  0  0  0  0  0
   -0.7590    1.5382    0.3754 C   0  0  0  0  0  0  0  0  0  0  0  0
   -0.8616    0.2547   -0.2388 C   0  0  0  0  0  0  0  0  0  0  0  0
   -2.1089   -0.5279   -0.4265 C   0  0  0  0  0  0  0  0  0  0  0  0
   -2.1163   -1.6219   -1.2202 C   0  0  0  0  0  0  0  0  0  0  0  0
   -3.4115   -2.2728   -1.5560 C   0  0  0  0  0  0  0  0  0  0  0  0
   -3.5707   -2.9586   -2.5567 O   0  0  0  0  0  0  0  0  0  0  0  0
   -4.4645   -2.0279   -0.7307 O   0  0  0  0  0  0  0  0  0  0  0  0
   -4.2331   -1.3633    0.5110 C   0  0  0  0  0  0  0  0  0  0  0  0
   -3.3654   -0.1369    0.3042 C   0  0  0  0  0  0  0  0  0  0  0  0
   -0.8729   -2.1623   -1.8120 C   0  0  0  0  0  0  0  0  0  0  0  0
   -0.8267   -3.1661   -2.5107 O   0  0  0  0  0  0  0  0  0  0  0  0
    0.3027   -1.5095   -1.4742 O   0  0  0  0  0  0  0  0  0  0  0  0
    0.3137   -0.3190   -0.7383 C   0  0  0  0  0  0  0  0  0  0  0  0
    1.5439    0.2894   -0.5671 C   0  0  0  0  0  0  0  0  0  0  0  0
    2.8971   -0.1245   -1.0140 C   0  0  0  0  0  0  0  0  0  0  0  0
    3.4472   -1.4179   -0.4576 C   0  0  0  0  0  0  0  0  0  0  0  0
    4.0073   -1.0107    0.8913 C   0  0  0  0  0  0  0  0  0  0  0  0
    4.4583    0.3305    0.7661 O   0  0  0  0  0  0  0  0  0  0  0  0
    3.7403    0.9488   -0.3142 C   0  0  0  0  0  0  0  0  0  0  0  0
    2.8869    2.0131    0.1641 O   0  0  0  0  0  0  0  0  0  0  0  0
    1.6195    1.5074    0.0684 C   0  0  0  0  0  0  0  0  0  0  0  0
    0.4947    2.1550    0.5345 C   0  0  0  0  0  0  0  0  0  0  0  0
    2.9960   -1.0703    1.8769 O   0  0  0  0  0  0  0  0  0  0  0  0
   -1.4349    4.1711    0.6613 H   0  0  0  0  0  0  0  0  0  0  0  0
   -2.8781    3.7510    1.5900 H   0  0  0  0  0  0  0  0  0  0  0  0
   -1.2952    3.4033    2.2936 H   0  0  0  0  0  0  0  0  0  0  0  0
   -3.7815   -2.0752    1.2126 H   0  0  0  0  0  0  0  0  0  0  0  0
   -5.2054   -1.0701    0.9204 H   0  0  0  0  0  0  0  0  0  0  0  0
   -3.9026    0.6206   -0.2782 H   0  0  0  0  0  0  0  0  0  0  0  0
   -3.1564    0.2562    1.3036 H   0  0  0  0  0  0  0  0  0  0  0  0
    2.9612   -0.0600   -2.1052 H   0  0  0  0  0  0  0  0  0  0  0  0
    2.7124   -2.2252   -0.3933 H   0  0  0  0  0  0  0  0  0  0  0  0
    4.2738   -1.7457   -1.0996 H   0  0  0  0  0  0  0  0  0  0  0  0
    4.8343   -1.6576    1.1998 H   0  0  0  0  0  0  0  0  0  0  0  0
    4.4816    1.3832   -0.9941 H   0  0  0  0  0  0  0  0  0  0  0  0
    0.6224    3.1231    1.0031 H   0  0  0  0  0  0  0  0  0  0  0  0
    3.4379   -0.8064    2.7016 H   0  0  0  0  0  0  0  0  0  0  0  0
  1  2  1  0
  2  3  1  0
  3  4  1  0
  4  5  1  0
  5  6  2  0
  6  7  1  0
  7  8  2  0
  7  9  1  0
  9 10  1  0
 10 11  1  0
  6 12  1  0
 12 13  2  0
 12 14  1  0
 14 15  1  0
 15 16  1  0
 16 17  1  0
 17 18  1  0
 18 19  1  0
 19 20  1  0
 20 21  1  0
 21 22  1  0
 22 23  1  0
 23 24  1  0
 19 25  1  0
 24  3  2  0
 15  4  2  0
 11  5  1  0
 23 16  2  0
 21 17  1  0
  1 26  1  0
  1 27  1  0
  1 28  1  0
 10 29  1  0
 10 30  1  0
 11 31  1  0
 11 32  1  0
 17 33  1  0
 18 34  1  0
 18 35  1  0
 19 36  1  0
 21 37  1  0
 24 38  1  0
 25 39  1  0
M  END
>  <Name>  (471) 
Aflatoxin G2A

>  <PubChem ID>  (471) 
105095

>  <CDB ID>  (471) 
CDB0471

>  <Smiles>  (471) 
COC1=C2C3=C(C(=O)OCC3)C(=O)OC2=C4C5CC(OC5OC4=C1)O

>  <Chemical class>  (471) 
5,7-Dioxygenated Coumarins

>  <Natural source>  (471) 
Aspergillus fiavus

>  <Molecular Formula>  (471) 
C17H14O8

>  <InChI-Key>  (471) 
PHYKMMVEUJESOM-UHFFFAOYSA-N

>  <Total Molweight>  (471) 
346.29

>  <cLogP>  (471) 
0.8718

>  <cLogS>  (471) 
-2.567

>  <H-Acceptors>  (471) 
8

>  <H-Donors>  (471) 
1

>  <Rotatable Bonds>  (471) 
1

>  <Polar Surface Area>  (471) 
100.52

$$$$
CDB0472
     RDKit          3D

 39 43  0  0  0  0  0  0  0  0999 V2000
   -2.4588   -3.1003    1.4952 C   0  0  0  0  0  0  0  0  0  0  0  0
   -2.2780   -1.7251    1.1760 O   0  0  0  0  0  0  0  0  0  0  0  0
   -1.1040   -1.3424    0.5765 C   0  0  0  0  0  0  0  0  0  0  0  0
   -0.9184    0.0513    0.3357 C   0  0  0  0  0  0  0  0  0  0  0  0
   -1.9090    1.1259    0.5994 C   0  0  0  0  0  0  0  0  0  0  0  0
   -1.5416    2.4252    0.5349 C   0  0  0  0  0  0  0  0  0  0  0  0
   -2.4826    3.4776    1.0051 C   0  0  0  0  0  0  0  0  0  0  0  0
   -2.1087    4.5822    1.3753 O   0  0  0  0  0  0  0  0  0  0  0  0
   -3.7998    3.1494    1.0761 O   0  0  0  0  0  0  0  0  0  0  0  0
   -4.2433    1.9263    0.4896 C   0  0  0  0  0  0  0  0  0  0  0  0
   -3.3421    0.7790    0.9044 C   0  0  0  0  0  0  0  0  0  0  0  0
   -0.2023    2.8320    0.0574 C   0  0  0  0  0  0  0  0  0  0  0  0
    0.1598    3.9934   -0.0714 O   0  0  0  0  0  0  0  0  0  0  0  0
    0.6489    1.8093   -0.3364 O   0  0  0  0  0  0  0  0  0  0  0  0
    0.3233    0.4588   -0.1663 C   0  0  0  0  0  0  0  0  0  0  0  0
    1.3094   -0.4549   -0.4920 C   0  0  0  0  0  0  0  0  0  0  0  0
    1.0851   -1.7989   -0.2960 C   0  0  0  0  0  0  0  0  0  0  0  0
   -0.0963   -2.2652    0.2424 C   0  0  0  0  0  0  0  0  0  0  0  0
    2.1376   -2.6076   -0.6296 O   0  0  0  0  0  0  0  0  0  0  0  0
    3.1002   -1.7237   -1.2569 C   0  0  0  0  0  0  0  0  0  0  0  0
    2.6815   -0.2551   -1.0096 C   0  0  0  0  0  0  0  0  0  0  0  0
    3.6999    0.2390   -0.0043 C   0  0  0  0  0  0  0  0  0  0  0  0
    4.9063   -0.6105   -0.3407 C   0  0  0  0  0  0  0  0  0  0  0  0
    4.4045   -1.9073   -0.6765 O   0  0  0  0  0  0  0  0  0  0  0  0
    2.7097    0.5302   -2.1930 O   0  0  0  0  0  0  0  0  0  0  0  0
   -3.4332   -3.2028    1.9825 H   0  0  0  0  0  0  0  0  0  0  0  0
   -2.4744   -3.7157    0.5898 H   0  0  0  0  0  0  0  0  0  0  0  0
   -1.6966   -3.4461    2.2010 H   0  0  0  0  0  0  0  0  0  0  0  0
   -4.2778    2.0506   -0.5996 H   0  0  0  0  0  0  0  0  0  0  0  0
   -5.2668    1.7419    0.8320 H   0  0  0  0  0  0  0  0  0  0  0  0
   -3.6850   -0.0917    0.3378 H   0  0  0  0  0  0  0  0  0  0  0  0
   -3.4455    0.5775    1.9768 H   0  0  0  0  0  0  0  0  0  0  0  0
   -0.1970   -3.3327    0.4004 H   0  0  0  0  0  0  0  0  0  0  0  0
    3.1576   -1.9725   -2.3235 H   0  0  0  0  0  0  0  0  0  0  0  0
    3.9219    1.3076   -0.0813 H   0  0  0  0  0  0  0  0  0  0  0  0
    3.3845    0.0225    1.0239 H   0  0  0  0  0  0  0  0  0  0  0  0
    5.6067   -0.6926    0.4951 H   0  0  0  0  0  0  0  0  0  0  0  0
    5.4443   -0.2147   -1.2094 H   0  0  0  0  0  0  0  0  0  0  0  0
    2.2800    1.3801   -1.9849 H   0  0  0  0  0  0  0  0  0  0  0  0
  1  2  1  0
  2  3  1  0
  3  4  1  0
  4  5  1  0
  5  6  2  0
  6  7  1  0
  7  8  2  0
  7  9  1  0
  9 10  1  0
 10 11  1  0
  6 12  1  0
 12 13  2  0
 12 14  1  0
 14 15  1  0
 15 16  1  0
 16 17  2  0
 17 18  1  0
 17 19  1  0
 19 20  1  0
 20 21  1  0
 21 22  1  0
 22 23  1  0
 23 24  1  0
 21 25  1  0
 18  3  2  0
 15  4  2  0
 11  5  1  0
 21 16  1  0
 24 20  1  0
  1 26  1  0
  1 27  1  0
  1 28  1  0
 10 29  1  0
 10 30  1  0
 11 31  1  0
 11 32  1  0
 18 33  1  0
 20 34  1  0
 22 35  1  0
 22 36  1  0
 23 37  1  0
 23 38  1  0
 25 39  1  0
M  END
>  <Name>  (472) 
Aflatoxin Gm2

>  <PubChem ID>  (472) 
131751028

>  <CDB ID>  (472) 
CDB0472

>  <Smiles>  (472) 
COC1=C2C3=C(C(=O)OCC3)C(=O)OC2=C4C(=C1)OC5C4(CCO5)O

>  <Chemical class>  (472) 
5,7-Dioxygenated Coumarins

>  <Natural source>  (472) 
Aspergillus fiavus

>  <Molecular Formula>  (472) 
C17H14O8

>  <InChI-Key>  (472) 
OZSVZTQMDLNGFU-UHFFFAOYSA-N

>  <Total Molweight>  (472) 
346.29

>  <cLogP>  (472) 
0.2099

>  <cLogS>  (472) 
-2.251

>  <H-Acceptors>  (472) 
8

>  <H-Donors>  (472) 
1

>  <Rotatable Bonds>  (472) 
1

>  <Polar Surface Area>  (472) 
100.52

$$$$
CDB0473
     RDKit          3D

 39 43  0  0  0  0  0  0  0  0999 V2000
   -2.4588   -3.1003    1.4952 C   0  0  0  0  0  0  0  0  0  0  0  0
   -2.2780   -1.7251    1.1760 O   0  0  0  0  0  0  0  0  0  0  0  0
   -1.1040   -1.3424    0.5765 C   0  0  0  0  0  0  0  0  0  0  0  0
   -0.9184    0.0513    0.3357 C   0  0  0  0  0  0  0  0  0  0  0  0
   -1.9090    1.1259    0.5994 C   0  0  0  0  0  0  0  0  0  0  0  0
   -1.5416    2.4252    0.5349 C   0  0  0  0  0  0  0  0  0  0  0  0
   -2.4826    3.4776    1.0051 C   0  0  0  0  0  0  0  0  0  0  0  0
   -2.1087    4.5822    1.3753 O   0  0  0  0  0  0  0  0  0  0  0  0
   -3.7998    3.1494    1.0761 O   0  0  0  0  0  0  0  0  0  0  0  0
   -4.2433    1.9263    0.4896 C   0  0  0  0  0  0  0  0  0  0  0  0
   -3.3421    0.7790    0.9044 C   0  0  0  0  0  0  0  0  0  0  0  0
   -0.2023    2.8320    0.0574 C   0  0  0  0  0  0  0  0  0  0  0  0
    0.1598    3.9934   -0.0714 O   0  0  0  0  0  0  0  0  0  0  0  0
    0.6489    1.8093   -0.3364 O   0  0  0  0  0  0  0  0  0  0  0  0
    0.3233    0.4588   -0.1663 C   0  0  0  0  0  0  0  0  0  0  0  0
    1.3094   -0.4549   -0.4920 C   0  0  0  0  0  0  0  0  0  0  0  0
    1.0851   -1.7989   -0.2960 C   0  0  0  0  0  0  0  0  0  0  0  0
   -0.0963   -2.2652    0.2424 C   0  0  0  0  0  0  0  0  0  0  0  0
    2.1376   -2.6076   -0.6296 O   0  0  0  0  0  0  0  0  0  0  0  0
    3.1002   -1.7237   -1.2569 C   0  0  0  0  0  0  0  0  0  0  0  0
    2.6815   -0.2551   -1.0096 C   0  0  0  0  0  0  0  0  0  0  0  0
    3.6999    0.2390   -0.0043 C   0  0  0  0  0  0  0  0  0  0  0  0
    4.9063   -0.6105   -0.3407 C   0  0  0  0  0  0  0  0  0  0  0  0
    4.4045   -1.9073   -0.6765 O   0  0  0  0  0  0  0  0  0  0  0  0
    2.7097    0.5302   -2.1930 O   0  0  0  0  0  0  0  0  0  0  0  0
   -3.4332   -3.2028    1.9825 H   0  0  0  0  0  0  0  0  0  0  0  0
   -2.4744   -3.7157    0.5898 H   0  0  0  0  0  0  0  0  0  0  0  0
   -1.6966   -3.4461    2.2010 H   0  0  0  0  0  0  0  0  0  0  0  0
   -4.2778    2.0506   -0.5996 H   0  0  0  0  0  0  0  0  0  0  0  0
   -5.2668    1.7419    0.8320 H   0  0  0  0  0  0  0  0  0  0  0  0
   -3.6850   -0.0917    0.3378 H   0  0  0  0  0  0  0  0  0  0  0  0
   -3.4455    0.5775    1.9768 H   0  0  0  0  0  0  0  0  0  0  0  0
   -0.1970   -3.3327    0.4004 H   0  0  0  0  0  0  0  0  0  0  0  0
    3.1576   -1.9725   -2.3235 H   0  0  0  0  0  0  0  0  0  0  0  0
    3.9219    1.3076   -0.0813 H   0  0  0  0  0  0  0  0  0  0  0  0
    3.3845    0.0225    1.0239 H   0  0  0  0  0  0  0  0  0  0  0  0
    5.6067   -0.6926    0.4951 H   0  0  0  0  0  0  0  0  0  0  0  0
    5.4443   -0.2147   -1.2094 H   0  0  0  0  0  0  0  0  0  0  0  0
    2.2800    1.3801   -1.9849 H   0  0  0  0  0  0  0  0  0  0  0  0
  1  2  1  0
  2  3  1  0
  3  4  1  0
  4  5  1  0
  5  6  2  0
  6  7  1  0
  7  8  2  0
  7  9  1  0
  9 10  1  0
 10 11  1  0
  6 12  1  0
 12 13  2  0
 12 14  1  0
 14 15  1  0
 15 16  1  0
 16 17  2  0
 17 18  1  0
 17 19  1  0
 19 20  1  0
 20 21  1  0
 21 22  1  0
 22 23  1  0
 23 24  1  0
 21 25  1  0
 18  3  2  0
 15  4  2  0
 11  5  1  0
 21 16  1  0
 24 20  1  0
  1 26  1  0
  1 27  1  0
  1 28  1  0
 10 29  1  0
 10 30  1  0
 11 31  1  0
 11 32  1  0
 18 33  1  0
 20 34  1  0
 22 35  1  0
 22 36  1  0
 23 37  1  0
 23 38  1  0
 25 39  1  0
M  END
>  <Name>  (473) 
Aflatoxin Gm

>  <PubChem ID>  (473) 
101243999

>  <CDB ID>  (473) 
CDB0473

>  <Smiles>  (473) 
COC1=C2C3=C(C(=O)OCC3)C(=O)OC2=C4C(=C1)OC5C4(CCO5)O

>  <Chemical class>  (473) 
5,7-Dioxygenated Coumarins

>  <Natural source>  (473) 
Aspergillus fiavus

>  <Molecular Formula>  (473) 
C17H14O8

>  <InChI-Key>  (473) 
OZSVZTQMDLNGFU-UHFFFAOYSA-N

>  <Total Molweight>  (473) 
346.29

>  <cLogP>  (473) 
0.2099

>  <cLogS>  (473) 
-2.251

>  <H-Acceptors>  (473) 
8

>  <H-Donors>  (473) 
1

>  <Rotatable Bonds>  (473) 
1

>  <Polar Surface Area>  (473) 
100.52

$$$$
CDB0474
     RDKit          3D

 59 61  0  0  0  0  0  0  0  0999 V2000
   -5.3309    0.0194    0.8227 C   0  0  0  0  0  0  0  0  0  0  0  0
   -4.1164   -0.7008    0.2140 C   0  0  0  0  0  0  0  0  0  0  0  0
   -3.7554   -1.9425    1.0532 C   0  0  0  0  0  0  0  0  0  0  0  0
   -2.4462   -2.5503    0.5639 C   0  0  0  0  0  0  0  0  0  0  0  0
   -1.4035   -1.4962    0.2974 C   0  0  0  0  0  0  0  0  0  0  0  0
   -1.7543   -0.1444    0.1366 C   0  0  0  0  0  0  0  0  0  0  0  0
   -3.0590    0.2714    0.2020 O   0  0  0  0  0  0  0  0  0  0  0  0
   -0.7755    0.8638   -0.1004 C   0  0  0  0  0  0  0  0  0  0  0  0
    0.5619    0.4151   -0.2034 C   0  0  0  0  0  0  0  0  0  0  0  0
    0.9394   -0.9223   -0.0561 C   0  0  0  0  0  0  0  0  0  0  0  0
   -0.0617   -1.8716    0.1662 C   0  0  0  0  0  0  0  0  0  0  0  0
    0.2198   -3.2124    0.2493 O   0  0  0  0  0  0  0  0  0  0  0  0
    2.3636   -1.2598   -0.0904 C   0  0  0  0  0  0  0  0  0  0  0  0
    3.3357   -0.3719   -0.3739 C   0  0  0  0  0  0  0  0  0  0  0  0
    2.9286    1.0336   -0.6695 C   0  0  0  0  0  0  0  0  0  0  0  0
    3.7166    1.9023   -1.0232 O   0  0  0  0  0  0  0  0  0  0  0  0
    1.5830    1.3389   -0.5110 O   0  0  0  0  0  0  0  0  0  0  0  0
    4.8474   -0.7077   -0.3946 C   0  0  0  0  0  0  0  0  0  0  0  0
    5.1253   -2.2141   -0.1236 C   0  0  0  0  0  0  0  0  0  0  0  0
    5.4371   -0.4442   -1.8034 C   0  0  0  0  0  0  0  0  0  0  0  0
    5.5928    0.1635    0.6214 C   0  0  0  0  0  0  0  0  0  0  0  0
    6.1362   -0.1976    1.7933 C   0  0  0  0  0  0  0  0  0  0  0  0
   -1.2126    2.3550   -0.2491 C   0  0  0  0  0  0  0  0  0  0  0  0
   -0.0763    3.4074   -0.3131 C   0  0  0  0  0  0  0  0  0  0  0  0
   -1.9820    2.4974   -1.5882 C   0  0  0  0  0  0  0  0  0  0  0  0
   -2.0138    2.7958    0.9866 C   0  0  0  0  0  0  0  0  0  0  0  0
   -3.2185    3.3847    1.0184 C   0  0  0  0  0  0  0  0  0  0  0  0
   -3.6529   -1.6075    2.4459 O   0  0  0  0  0  0  0  0  0  0  0  0
   -4.4540   -1.0634   -1.2425 C   0  0  0  0  0  0  0  0  0  0  0  0
   -6.1988   -0.6443    0.8933 H   0  0  0  0  0  0  0  0  0  0  0  0
   -5.1046    0.4086    1.8217 H   0  0  0  0  0  0  0  0  0  0  0  0
   -5.6106    0.8907    0.2185 H   0  0  0  0  0  0  0  0  0  0  0  0
   -4.5517   -2.6930    0.9831 H   0  0  0  0  0  0  0  0  0  0  0  0
   -2.6155   -3.1075   -0.3652 H   0  0  0  0  0  0  0  0  0  0  0  0
   -2.0741   -3.2561    1.3164 H   0  0  0  0  0  0  0  0  0  0  0  0
    0.9570   -3.4075   -0.3523 H   0  0  0  0  0  0  0  0  0  0  0  0
    2.6150   -2.2779    0.1781 H   0  0  0  0  0  0  0  0  0  0  0  0
    4.6644   -2.8487   -0.8908 H   0  0  0  0  0  0  0  0  0  0  0  0
    6.2011   -2.4304   -0.1388 H   0  0  0  0  0  0  0  0  0  0  0  0
    4.7445   -2.5406    0.8512 H   0  0  0  0  0  0  0  0  0  0  0  0
    5.4437    0.6154   -2.0766 H   0  0  0  0  0  0  0  0  0  0  0  0
    4.8701   -0.9798   -2.5744 H   0  0  0  0  0  0  0  0  0  0  0  0
    6.4789   -0.7832   -1.8652 H   0  0  0  0  0  0  0  0  0  0  0  0
    5.6905    1.2171    0.3492 H   0  0  0  0  0  0  0  0  0  0  0  0
    6.6375    0.5422    2.4120 H   0  0  0  0  0  0  0  0  0  0  0  0
    6.1015   -1.2102    2.1781 H   0  0  0  0  0  0  0  0  0  0  0  0
   -0.4813    4.4286   -0.3250 H   0  0  0  0  0  0  0  0  0  0  0  0
    0.5181    3.3142   -1.2290 H   0  0  0  0  0  0  0  0  0  0  0  0
    0.5934    3.3453    0.5532 H   0  0  0  0  0  0  0  0  0  0  0  0
   -2.2468    3.5421   -1.7917 H   0  0  0  0  0  0  0  0  0  0  0  0
   -2.9128    1.9223   -1.6122 H   0  0  0  0  0  0  0  0  0  0  0  0
   -1.3678    2.1495   -2.4282 H   0  0  0  0  0  0  0  0  0  0  0  0
   -1.5318    2.5933    1.9437 H   0  0  0  0  0  0  0  0  0  0  0  0
   -3.6807    3.6355    1.9682 H   0  0  0  0  0  0  0  0  0  0  0  0
   -3.7787    3.6146    0.1195 H   0  0  0  0  0  0  0  0  0  0  0  0
   -3.2222   -2.3456    2.9085 H   0  0  0  0  0  0  0  0  0  0  0  0
   -5.2776   -1.7829   -1.2944 H   0  0  0  0  0  0  0  0  0  0  0  0
   -3.5935   -1.4847   -1.7720 H   0  0  0  0  0  0  0  0  0  0  0  0
   -4.7416   -0.1686   -1.8072 H   0  0  0  0  0  0  0  0  0  0  0  0
  1  2  1  0
  2  3  1  0
  3  4  1  0
  4  5  1  0
  5  6  2  0
  6  7  1  0
  6  8  1  0
  8  9  2  0
  9 10  1  0
 10 11  2  0
 11 12  1  0
 10 13  1  0
 13 14  2  0
 14 15  1  0
 15 16  2  0
 15 17  1  0
 14 18  1  0
 18 19  1  0
 18 20  1  0
 18 21  1  0
 21 22  2  0
  8 23  1  0
 23 24  1  0
 23 25  1  0
 23 26  1  0
 26 27  2  0
  3 28  1  0
  2 29  1  0
  7  2  1  0
 11  5  1  0
 17  9  1  0
  1 30  1  0
  1 31  1  0
  1 32  1  0
  3 33  1  0
  4 34  1  0
  4 35  1  0
 12 36  1  0
 13 37  1  0
 19 38  1  0
 19 39  1  0
 19 40  1  0
 20 41  1  0
 20 42  1  0
 20 43  1  0
 21 44  1  0
 22 45  1  0
 22 46  1  0
 24 47  1  0
 24 48  1  0
 24 49  1  0
 25 50  1  0
 25 51  1  0
 25 52  1  0
 26 53  1  0
 27 54  1  0
 27 55  1  0
 28 56  1  0
 29 57  1  0
 29 58  1  0
 29 59  1  0
M  END
>  <Name>  (474) 
Claucavatin-B

>  <PubChem ID>  (474) 
102446087

>  <CDB ID>  (474) 
CDB0474

>  <Smiles>  (474) 
CC1(C(CC2=C(O1)C(=C3C(=C2O)C=C(C(=O)O3)C(C)(C)C=C)C(C)(C)C=C)O)C

>  <Chemical class>  (474) 
5,7-Dioxygenated Coumarins

>  <Natural source>  (474) 
Clausena excavata

>  <Molecular Formula>  (474) 
C24H30O5

>  <InChI-Key>  (474) 
XNKGBWKBHHJMFK-MRXNPFEDSA-N

>  <Total Molweight>  (474) 
398.497

>  <cLogP>  (474) 
5.2885

>  <cLogS>  (474) 
-5.108

>  <H-Acceptors>  (474) 
5

>  <H-Donors>  (474) 
2

>  <Rotatable Bonds>  (474) 
4

>  <Polar Surface Area>  (474) 
75.99

$$$$
CDB0475
     RDKit          3D

 57 59  0  0  0  0  0  0  0  0999 V2000
   -5.5116   -0.8356    0.1424 C   0  0  0  0  0  0  0  0  0  0  0  0
   -4.0982   -0.9378    0.7358 C   0  0  0  0  0  0  0  0  0  0  0  0
   -3.7455   -2.4093    0.9094 C   0  0  0  0  0  0  0  0  0  0  0  0
   -2.2931   -2.5502    1.2474 C   0  0  0  0  0  0  0  0  0  0  0  0
   -1.8619   -3.4841    1.9214 O   0  0  0  0  0  0  0  0  0  0  0  0
   -1.3608   -1.5556    0.6791 C   0  0  0  0  0  0  0  0  0  0  0  0
   -1.8794   -0.4774   -0.0541 C   0  0  0  0  0  0  0  0  0  0  0  0
   -3.2330   -0.3181   -0.2260 O   0  0  0  0  0  0  0  0  0  0  0  0
   -1.0246    0.4788   -0.6716 C   0  0  0  0  0  0  0  0  0  0  0  0
    0.3636    0.2763   -0.4849 C   0  0  0  0  0  0  0  0  0  0  0  0
    0.8939   -0.7801    0.2622 C   0  0  0  0  0  0  0  0  0  0  0  0
    0.0206   -1.7007    0.8458 C   0  0  0  0  0  0  0  0  0  0  0  0
    0.5591   -2.7415    1.5641 O   0  0  0  0  0  0  0  0  0  0  0  0
    2.3453   -0.8940    0.3991 C   0  0  0  0  0  0  0  0  0  0  0  0
    3.2195   -0.0424   -0.1697 C   0  0  0  0  0  0  0  0  0  0  0  0
    2.6683    1.0943   -0.9604 C   0  0  0  0  0  0  0  0  0  0  0  0
    3.3702    1.9449   -1.4931 O   0  0  0  0  0  0  0  0  0  0  0  0
    1.2843    1.1663   -1.0764 O   0  0  0  0  0  0  0  0  0  0  0  0
    4.7568   -0.1547   -0.0348 C   0  0  0  0  0  0  0  0  0  0  0  0
    5.2925    1.0509    0.7708 C   0  0  0  0  0  0  0  0  0  0  0  0
    5.4488   -0.1745   -1.4190 C   0  0  0  0  0  0  0  0  0  0  0  0
    5.1701   -1.4887    0.6173 C   0  0  0  0  0  0  0  0  0  0  0  0
    5.7491   -1.6897    1.8105 C   0  0  0  0  0  0  0  0  0  0  0  0
   -1.6312    1.6560   -1.4906 C   0  0  0  0  0  0  0  0  0  0  0  0
   -2.3103    1.0662   -2.7567 C   0  0  0  0  0  0  0  0  0  0  0  0
   -0.6514    2.7293   -2.0302 C   0  0  0  0  0  0  0  0  0  0  0  0
   -2.6643    2.4337   -0.6626 C   0  0  0  0  0  0  0  0  0  0  0  0
   -2.4175    3.0676    0.4943 C   0  0  0  0  0  0  0  0  0  0  0  0
   -4.0768   -0.1573    2.0607 C   0  0  0  0  0  0  0  0  0  0  0  0
   -5.5625   -1.3323   -0.8337 H   0  0  0  0  0  0  0  0  0  0  0  0
   -6.2613   -1.2868    0.8008 H   0  0  0  0  0  0  0  0  0  0  0  0
   -5.7870    0.2111   -0.0322 H   0  0  0  0  0  0  0  0  0  0  0  0
   -4.3460   -2.8626    1.7058 H   0  0  0  0  0  0  0  0  0  0  0  0
   -3.9100   -2.9724   -0.0172 H   0  0  0  0  0  0  0  0  0  0  0  0
   -0.1739   -3.3034    1.9055 H   0  0  0  0  0  0  0  0  0  0  0  0
    2.6907   -1.7256    1.0068 H   0  0  0  0  0  0  0  0  0  0  0  0
    4.8116    1.1229    1.7538 H   0  0  0  0  0  0  0  0  0  0  0  0
    5.1207    2.0027    0.2579 H   0  0  0  0  0  0  0  0  0  0  0  0
    6.3755    0.9776    0.9285 H   0  0  0  0  0  0  0  0  0  0  0  0
    4.9871   -0.9119   -2.0873 H   0  0  0  0  0  0  0  0  0  0  0  0
    5.4142    0.7959   -1.9230 H   0  0  0  0  0  0  0  0  0  0  0  0
    6.5120   -0.4319   -1.3283 H   0  0  0  0  0  0  0  0  0  0  0  0
    4.9575   -2.3781    0.0203 H   0  0  0  0  0  0  0  0  0  0  0  0
    5.9996   -0.8816    2.4889 H   0  0  0  0  0  0  0  0  0  0  0  0
    5.9847   -2.6969    2.1430 H   0  0  0  0  0  0  0  0  0  0  0  0
   -3.1460    0.3976   -2.5286 H   0  0  0  0  0  0  0  0  0  0  0  0
   -1.5908    0.4929   -3.3543 H   0  0  0  0  0  0  0  0  0  0  0  0
   -2.7141    1.8594   -3.3983 H   0  0  0  0  0  0  0  0  0  0  0  0
   -1.1919    3.5395   -2.5382 H   0  0  0  0  0  0  0  0  0  0  0  0
    0.0388    2.3131   -2.7730 H   0  0  0  0  0  0  0  0  0  0  0  0
   -0.0651    3.1986   -1.2317 H   0  0  0  0  0  0  0  0  0  0  0  0
   -3.6794    2.4673   -1.0556 H   0  0  0  0  0  0  0  0  0  0  0  0
   -3.2084    3.5966    1.0168 H   0  0  0  0  0  0  0  0  0  0  0  0
   -1.4287    3.0742    0.9424 H   0  0  0  0  0  0  0  0  0  0  0  0
   -4.3439    0.8925    1.8951 H   0  0  0  0  0  0  0  0  0  0  0  0
   -3.0840   -0.1502    2.5218 H   0  0  0  0  0  0  0  0  0  0  0  0
   -4.7817   -0.5813    2.7838 H   0  0  0  0  0  0  0  0  0  0  0  0
  1  2  1  0
  2  3  1  0
  3  4  1  0
  4  5  2  0
  4  6  1  0
  6  7  1  0
  7  8  1  0
  7  9  2  0
  9 10  1  0
 10 11  2  0
 11 12  1  0
 12 13  1  0
 11 14  1  0
 14 15  2  0
 15 16  1  0
 16 17  2  0
 16 18  1  0
 15 19  1  0
 19 20  1  0
 19 21  1  0
 19 22  1  0
 22 23  2  0
  9 24  1  0
 24 25  1  0
 24 26  1  0
 24 27  1  0
 27 28  2  0
  2 29  1  0
  8  2  1  0
 12  6  2  0
 18 10  1  0
  1 30  1  0
  1 31  1  0
  1 32  1  0
  3 33  1  0
  3 34  1  0
 13 35  1  0
 14 36  1  0
 20 37  1  0
 20 38  1  0
 20 39  1  0
 21 40  1  0
 21 41  1  0
 21 42  1  0
 22 43  1  0
 23 44  1  0
 23 45  1  0
 25 46  1  0
 25 47  1  0
 25 48  1  0
 26 49  1  0
 26 50  1  0
 26 51  1  0
 27 52  1  0
 28 53  1  0
 28 54  1  0
 29 55  1  0
 29 56  1  0
 29 57  1  0
M  END
>  <Name>  (475) 
Claucavatin-A

>  <PubChem ID>  (475) 
102446086

>  <CDB ID>  (475) 
CDB0475

>  <Smiles>  (475) 
CC1(CC(=O)C2=C(O1)C(=C3C(=C2O)C=C(C(=O)O3)C(C)(C)C=C)C(C)(C)C=C)C

>  <Chemical class>  (475) 
5,7-Dioxygenated Coumarins

>  <Natural source>  (475) 
Clausena excavata

>  <Molecular Formula>  (475) 
C24H28O5

>  <InChI-Key>  (475) 
NMVOQBXMPKNNCL-UHFFFAOYSA-N

>  <Total Molweight>  (475) 
396.481

>  <cLogP>  (475) 
5.5898

>  <cLogS>  (475) 
-5.688

>  <H-Acceptors>  (475) 
5

>  <H-Donors>  (475) 
1

>  <Rotatable Bonds>  (475) 
4

>  <Polar Surface Area>  (475) 
72.83

$$$$
CDB0476
     RDKit          3D

 90 95  0  0  0  0  0  0  0  0999 V2000
   -6.1739    4.7313    0.7696 C   0  0  0  0  0  0  0  0  0  0  0  0
   -5.1400    4.0554    1.2905 C   0  0  0  0  0  0  0  0  0  0  0  0
   -3.6643    4.1641    0.9031 C   0  0  0  0  0  0  0  0  0  0  0  0
   -3.3627    5.2232   -0.1863 C   0  0  0  0  0  0  0  0  0  0  0  0
   -2.9574    4.6812    2.1862 C   0  0  0  0  0  0  0  0  0  0  0  0
   -3.1461    2.7846    0.4413 C   0  0  0  0  0  0  0  0  0  0  0  0
   -2.1986    2.0728    1.0792 C   0  0  0  0  0  0  0  0  0  0  0  0
   -1.7117    0.7736    0.6118 C   0  0  0  0  0  0  0  0  0  0  0  0
   -0.7705    0.0216    1.3212 C   0  0  0  0  0  0  0  0  0  0  0  0
   -0.3786    0.4020    2.5783 O   0  0  0  0  0  0  0  0  0  0  0  0
   -0.2144   -1.1506    0.7877 C   0  0  0  0  0  0  0  0  0  0  0  0
   -0.7259   -1.6328   -0.4357 C   0  0  0  0  0  0  0  0  0  0  0  0
   -0.2875   -2.8185   -0.9703 O   0  0  0  0  0  0  0  0  0  0  0  0
    0.3402   -3.7692   -0.1013 C   0  0  0  0  0  0  0  0  0  0  0  0
   -0.7135   -4.4860    0.7567 C   0  0  0  0  0  0  0  0  0  0  0  0
    0.9924   -4.8079   -1.0274 C   0  0  0  0  0  0  0  0  0  0  0  0
    1.4307   -3.0844    0.7158 C   0  0  0  0  0  0  0  0  0  0  0  0
    0.8558   -1.9319    1.5452 C   0  0  1  0  0  0  0  0  0  0  0  0
    2.0259   -1.1178    2.1290 C   0  0  0  0  0  0  0  0  0  0  0  0
    2.7627   -0.1746    1.3640 C   0  0  0  0  0  0  0  0  0  0  0  0
    2.5426    0.0183   -0.0119 N   0  0  0  0  0  0  0  0  0  0  0  0
    3.2448    0.9307   -0.8119 C   0  0  0  0  0  0  0  0  0  0  0  0
    4.2406    1.7369   -0.2482 C   0  0  0  0  0  0  0  0  0  0  0  0
    4.9412    2.6754   -1.0192 C   0  0  0  0  0  0  0  0  0  0  0  0
    4.6473    2.8156   -2.3757 C   0  0  0  0  0  0  0  0  0  0  0  0
    3.6771    2.0030   -2.9477 C   0  0  0  0  0  0  0  0  0  0  0  0
    3.3976    2.1595   -4.2756 O   0  0  0  0  0  0  0  0  0  0  0  0
    3.0052    1.0422   -2.1861 C   0  0  0  0  0  0  0  0  0  0  0  0
    2.0836    0.2384   -2.8153 O   0  0  0  0  0  0  0  0  0  0  0  0
    2.6939   -1.0116   -3.1587 C   0  0  0  0  0  0  0  0  0  0  0  0
    4.5421    1.5710    1.1899 C   0  0  0  0  0  0  0  0  0  0  0  0
    5.4154    2.2488    1.7289 O   0  0  0  0  0  0  0  0  0  0  0  0
    3.7882    0.5685    1.9873 C   0  0  0  0  0  0  0  0  0  0  0  0
    4.0960    0.3674    3.3344 C   0  0  0  0  0  0  0  0  0  0  0  0
    5.0792    1.0593    3.9920 O   0  0  0  0  0  0  0  0  0  0  0  0
    3.4073   -0.5808    4.0785 C   0  0  0  0  0  0  0  0  0  0  0  0
    2.3824   -1.3277    3.4904 C   0  0  0  0  0  0  0  0  0  0  0  0
    1.6797   -2.3016    4.1586 O   0  0  0  0  0  0  0  0  0  0  0  0
    1.9517   -2.4856    5.5427 C   0  0  0  0  0  0  0  0  0  0  0  0
   -1.7122   -0.9251   -1.1845 C   0  0  0  0  0  0  0  0  0  0  0  0
   -2.2545   -1.5153   -2.5243 C   0  0  0  0  0  0  0  0  0  0  0  0
   -3.0875   -2.7802   -2.1873 C   0  0  0  0  0  0  0  0  0  0  0  0
   -3.2067   -0.6116   -3.3495 C   0  0  0  0  0  0  0  0  0  0  0  0
   -1.0965   -1.7675   -3.5015 C   0  0  0  0  0  0  0  0  0  0  0  0
   -0.7930   -2.9090   -4.1374 C   0  0  0  0  0  0  0  0  0  0  0  0
   -2.1706    0.2823   -0.6115 C   0  0  0  0  0  0  0  0  0  0  0  0
   -3.1730    1.0285   -1.2666 O   0  0  0  0  0  0  0  0  0  0  0  0
   -3.7329    2.2149   -0.8072 C   0  0  0  0  0  0  0  0  0  0  0  0
   -4.6436    2.7451   -1.4306 O   0  0  0  0  0  0  0  0  0  0  0  0
   -6.0574    5.4508   -0.0338 H   0  0  0  0  0  0  0  0  0  0  0  0
   -7.1843    4.5571    1.1276 H   0  0  0  0  0  0  0  0  0  0  0  0
   -5.3672    3.3413    2.0830 H   0  0  0  0  0  0  0  0  0  0  0  0
   -3.9045    5.0462   -1.1203 H   0  0  0  0  0  0  0  0  0  0  0  0
   -2.2932    5.2400   -0.4295 H   0  0  0  0  0  0  0  0  0  0  0  0
   -3.6342    6.2310    0.1513 H   0  0  0  0  0  0  0  0  0  0  0  0
   -1.8797    4.8098    2.0284 H   0  0  0  0  0  0  0  0  0  0  0  0
   -3.3544    5.6581    2.4914 H   0  0  0  0  0  0  0  0  0  0  0  0
   -3.0971    4.0022    3.0366 H   0  0  0  0  0  0  0  0  0  0  0  0
   -1.7160    2.4713    1.9636 H   0  0  0  0  0  0  0  0  0  0  0  0
   -1.1518    0.7500    3.0523 H   0  0  0  0  0  0  0  0  0  0  0  0
   -1.4427   -5.0016    0.1211 H   0  0  0  0  0  0  0  0  0  0  0  0
   -0.2509   -5.2258    1.4185 H   0  0  0  0  0  0  0  0  0  0  0  0
   -1.2938   -3.7919    1.3723 H   0  0  0  0  0  0  0  0  0  0  0  0
    1.5123   -5.5865   -0.4597 H   0  0  0  0  0  0  0  0  0  0  0  0
    1.7116   -4.3320   -1.7045 H   0  0  0  0  0  0  0  0  0  0  0  0
    0.2418   -5.2866   -1.6673 H   0  0  0  0  0  0  0  0  0  0  0  0
    1.9423   -3.8027    1.3699 H   0  0  0  0  0  0  0  0  0  0  0  0
    2.1936   -2.7019    0.0248 H   0  0  0  0  0  0  0  0  0  0  0  0
    0.2893   -2.3842    2.3692 H   0  0  0  0  0  0  0  0  0  0  0  0
    1.7573   -0.4350   -0.4623 H   0  0  0  0  0  0  0  0  0  0  0  0
    5.7070    3.2995   -0.5636 H   0  0  0  0  0  0  0  0  0  0  0  0
    5.1718    3.5500   -2.9804 H   0  0  0  0  0  0  0  0  0  0  0  0
    2.6159    1.6024   -4.4530 H   0  0  0  0  0  0  0  0  0  0  0  0
    2.0405   -1.5184   -3.8732 H   0  0  0  0  0  0  0  0  0  0  0  0
    3.6689   -0.8735   -3.6403 H   0  0  0  0  0  0  0  0  0  0  0  0
    2.7937   -1.6510   -2.2764 H   0  0  0  0  0  0  0  0  0  0  0  0
    5.4745    1.6954    3.3519 H   0  0  0  0  0  0  0  0  0  0  0  0
    3.6987   -0.7124    5.1149 H   0  0  0  0  0  0  0  0  0  0  0  0
    1.2764   -3.2626    5.9139 H   0  0  0  0  0  0  0  0  0  0  0  0
    2.9772   -2.8356    5.6991 H   0  0  0  0  0  0  0  0  0  0  0  0
    1.7503   -1.5718    6.1112 H   0  0  0  0  0  0  0  0  0  0  0  0
   -3.8846   -2.5417   -1.4721 H   0  0  0  0  0  0  0  0  0  0  0  0
   -2.4906   -3.5834   -1.7459 H   0  0  0  0  0  0  0  0  0  0  0  0
   -3.5680   -3.1960   -3.0814 H   0  0  0  0  0  0  0  0  0  0  0  0
   -4.1573   -0.4375   -2.8327 H   0  0  0  0  0  0  0  0  0  0  0  0
   -2.7511    0.3561   -3.5924 H   0  0  0  0  0  0  0  0  0  0  0  0
   -3.4701   -1.0825   -4.3066 H   0  0  0  0  0  0  0  0  0  0  0  0
   -0.4693   -0.8978   -3.6987 H   0  0  0  0  0  0  0  0  0  0  0  0
   -1.3648   -3.8201   -4.0012 H   0  0  0  0  0  0  0  0  0  0  0  0
    0.0522   -2.9546   -4.8166 H   0  0  0  0  0  0  0  0  0  0  0  0
  1  2  2  0
  2  3  1  0
  3  4  1  0
  3  5  1  0
  3  6  1  0
  6  7  2  0
  7  8  1  0
  8  9  1  0
  9 10  1  0
  9 11  2  0
 11 12  1  0
 12 13  1  0
 13 14  1  0
 14 15  1  0
 14 16  1  0
 14 17  1  0
 17 18  1  0
 18 19  1  0
 19 20  1  0
 20 21  1  0
 21 22  1  0
 22 23  2  0
 23 24  1  0
 24 25  2  0
 25 26  1  0
 26 27  1  0
 26 28  2  0
 28 29  1  0
 29 30  1  0
 23 31  1  0
 31 32  2  0
 31 33  1  0
 33 34  1  0
 34 35  1  0
 34 36  2  0
 36 37  1  0
 37 38  1  0
 38 39  1  0
 12 40  2  0
 40 41  1  0
 41 42  1  0
 41 43  1  0
 41 44  1  0
 44 45  2  0
 40 46  1  0
 46 47  1  0
 47 48  1  0
 48 49  2  0
 48  6  1  0
 46  8  2  0
 18 11  1  0
 37 19  2  0
 33 20  2  0
 28 22  1  0
  1 50  1  0
  1 51  1  0
  2 52  1  0
  4 53  1  0
  4 54  1  0
  4 55  1  0
  5 56  1  0
  5 57  1  0
  5 58  1  0
  7 59  1  0
 10 60  1  0
 15 61  1  0
 15 62  1  0
 15 63  1  0
 16 64  1  0
 16 65  1  0
 16 66  1  0
 17 67  1  0
 17 68  1  0
 18 69  1  1
 21 70  1  0
 24 71  1  0
 25 72  1  0
 27 73  1  0
 30 74  1  0
 30 75  1  0
 30 76  1  0
 35 77  1  0
 36 78  1  0
 39 79  1  0
 39 80  1  0
 39 81  1  0
 42 82  1  0
 42 83  1  0
 42 84  1  0
 43 85  1  0
 43 86  1  0
 43 87  1  0
 44 88  1  0
 45 89  1  0
 45 90  1  0
M  END
>  <Name>  (476) 
Neoacrimarine-B

>  <PubChem ID>  (476) 
102277789

>  <CDB ID>  (476) 
CDB0476

>  <Smiles>  (476) 
C=CC(C)(C)C1=CC2=C(O)C3=C(OC(C)(C)C[C@H]3C3=C4NC5=C(C=CC(O)=C5OC)C(=O)C4=C(O)C=C3OC)C(C(C)(C)C=C)=C2OC1=O

>  <Chemical class>  (476) 
5,7-Dioxygenated Coumarins

>  <Natural source>  (476) 
Citrus paradisi x C. tangerina

>  <Molecular Formula>  (476) 
C39H41NO9

>  <InChI-Key>  (476) 
LOTKMARBSZKWMQ-FQEVSTJZSA-N

>  <Total Molweight>  (476) 
667.753

>  <cLogP>  (476) 
7.6483

>  <cLogS>  (476) 
-8.692

>  <H-Acceptors>  (476) 
10

>  <H-Donors>  (476) 
4

>  <Rotatable Bonds>  (476) 
7

>  <Polar Surface Area>  (476) 
143.78

$$$$
CDB0477
     RDKit          3D

 93 98  0  0  0  0  0  0  0  0999 V2000
   -5.8852    3.0305   -4.7701 C   0  0  0  0  0  0  0  0  0  0  0  0
   -4.6836    2.8256   -4.2121 C   0  0  0  0  0  0  0  0  0  0  0  0
   -4.2361    3.1934   -2.7961 C   0  0  0  0  0  0  0  0  0  0  0  0
   -5.3050    3.9394   -1.9592 C   0  0  0  0  0  0  0  0  0  0  0  0
   -3.0852    4.2169   -2.9998 C   0  0  0  0  0  0  0  0  0  0  0  0
   -3.7884    1.9212   -2.0461 C   0  0  0  0  0  0  0  0  0  0  0  0
   -2.5346    1.6949   -1.6144 C   0  0  0  0  0  0  0  0  0  0  0  0
   -2.1271    0.4782   -0.9105 C   0  0  0  0  0  0  0  0  0  0  0  0
   -0.8053    0.2690   -0.4970 C   0  0  0  0  0  0  0  0  0  0  0  0
    0.0864    1.2844   -0.7410 O   0  0  0  0  0  0  0  0  0  0  0  0
   -0.4224   -0.9269    0.1334 C   0  0  0  0  0  0  0  0  0  0  0  0
   -1.4345   -1.8597    0.4544 C   0  0  0  0  0  0  0  0  0  0  0  0
   -1.1541   -2.9989    1.1706 O   0  0  0  0  0  0  0  0  0  0  0  0
    0.0405   -3.0277    1.9577 C   0  0  0  0  0  0  0  0  0  0  0  0
    0.2158   -4.4908    2.3935 C   0  0  0  0  0  0  0  0  0  0  0  0
   -0.1226   -2.1691    3.2215 C   0  0  0  0  0  0  0  0  0  0  0  0
    1.2283   -2.6232    1.0928 C   0  0  0  0  0  0  0  0  0  0  0  0
    1.0284   -1.2252    0.4972 C   0  0  1  0  0  0  0  0  0  0  0  0
    2.0546   -1.0189   -0.6315 C   0  0  0  0  0  0  0  0  0  0  0  0
    3.2195   -0.2297   -0.4377 C   0  0  0  0  0  0  0  0  0  0  0  0
    3.4941    0.3746    0.7994 N   0  0  0  0  0  0  0  0  0  0  0  0
    4.5888    1.2193    1.0540 C   0  0  0  0  0  0  0  0  0  0  0  0
    5.4778    1.5307    0.0287 C   0  0  0  0  0  0  0  0  0  0  0  0
    6.5483    2.3958    0.2640 C   0  0  0  0  0  0  0  0  0  0  0  0
    6.7202    2.9708    1.5267 C   0  0  0  0  0  0  0  0  0  0  0  0
    5.8329    2.6813    2.5714 C   0  0  0  0  0  0  0  0  0  0  0  0
    5.9139    3.2449    3.8168 O   0  0  0  0  0  0  0  0  0  0  0  0
    6.8870    4.2611    4.0248 C   0  0  0  0  0  0  0  0  0  0  0  0
    4.7791    1.7762    2.3357 C   0  0  0  0  0  0  0  0  0  0  0  0
    3.8307    1.3989    3.2647 O   0  0  0  0  0  0  0  0  0  0  0  0
    4.3451    1.1045    4.5614 C   0  0  0  0  0  0  0  0  0  0  0  0
    5.2756    0.9188   -1.3060 C   0  0  0  0  0  0  0  0  0  0  0  0
    6.0836    1.1927   -2.1871 O   0  0  0  0  0  0  0  0  0  0  0  0
    4.1017    0.0082   -1.5244 C   0  0  0  0  0  0  0  0  0  0  0  0
    3.8652   -0.6025   -2.7628 C   0  0  0  0  0  0  0  0  0  0  0  0
    4.7174   -0.4243   -3.8152 O   0  0  0  0  0  0  0  0  0  0  0  0
    2.7554   -1.4229   -2.9427 C   0  0  0  0  0  0  0  0  0  0  0  0
    1.8488   -1.6125   -1.8984 C   0  0  0  0  0  0  0  0  0  0  0  0
    0.7747   -2.4525   -2.0540 O   0  0  0  0  0  0  0  0  0  0  0  0
   -0.0059   -2.1852   -3.2186 C   0  0  0  0  0  0  0  0  0  0  0  0
   -2.7934   -1.6891    0.0552 C   0  0  0  0  0  0  0  0  0  0  0  0
   -3.8514   -2.7813    0.3933 C   0  0  0  0  0  0  0  0  0  0  0  0
   -5.3257   -2.4890    0.0131 C   0  0  0  0  0  0  0  0  0  0  0  0
   -3.4880   -4.0681   -0.3982 C   0  0  0  0  0  0  0  0  0  0  0  0
   -3.8823   -3.0863    1.8984 C   0  0  0  0  0  0  0  0  0  0  0  0
   -4.1295   -2.1933    2.8693 C   0  0  0  0  0  0  0  0  0  0  0  0
   -3.0838   -0.5011   -0.6461 C   0  0  0  0  0  0  0  0  0  0  0  0
   -4.3940   -0.2637   -1.1100 O   0  0  0  0  0  0  0  0  0  0  0  0
   -4.8186    0.8725   -1.7902 C   0  0  0  0  0  0  0  0  0  0  0  0
   -5.9879    0.9737   -2.1408 O   0  0  0  0  0  0  0  0  0  0  0  0
   -6.7081    3.4901   -4.2333 H   0  0  0  0  0  0  0  0  0  0  0  0
   -6.0813    2.7135   -5.7900 H   0  0  0  0  0  0  0  0  0  0  0  0
   -3.9278    2.3392   -4.8302 H   0  0  0  0  0  0  0  0  0  0  0  0
   -4.9286    4.1613   -0.9530 H   0  0  0  0  0  0  0  0  0  0  0  0
   -5.5768    4.8964   -2.4218 H   0  0  0  0  0  0  0  0  0  0  0  0
   -6.2324    3.3714   -1.8401 H   0  0  0  0  0  0  0  0  0  0  0  0
   -2.2566    3.7956   -3.5826 H   0  0  0  0  0  0  0  0  0  0  0  0
   -3.4355    5.1048   -3.5420 H   0  0  0  0  0  0  0  0  0  0  0  0
   -2.6824    4.5663   -2.0414 H   0  0  0  0  0  0  0  0  0  0  0  0
   -1.7460    2.4220   -1.7768 H   0  0  0  0  0  0  0  0  0  0  0  0
    0.8979    1.1623   -0.2234 H   0  0  0  0  0  0  0  0  0  0  0  0
    1.1175   -4.6275    2.9994 H   0  0  0  0  0  0  0  0  0  0  0  0
   -0.6491   -4.8311    2.9751 H   0  0  0  0  0  0  0  0  0  0  0  0
    0.2778   -5.1544    1.5230 H   0  0  0  0  0  0  0  0  0  0  0  0
   -0.9678   -2.5248    3.8223 H   0  0  0  0  0  0  0  0  0  0  0  0
    0.7787   -2.2017    3.8426 H   0  0  0  0  0  0  0  0  0  0  0  0
   -0.3396   -1.1214    2.9921 H   0  0  0  0  0  0  0  0  0  0  0  0
    2.1657   -2.6590    1.6634 H   0  0  0  0  0  0  0  0  0  0  0  0
    1.3335   -3.3623    0.2872 H   0  0  0  0  0  0  0  0  0  0  0  0
    1.2213   -0.5113    1.3046 H   0  0  0  0  0  0  0  0  0  0  0  0
    2.9933    0.1220    1.6424 H   0  0  0  0  0  0  0  0  0  0  0  0
    7.2450    2.6325   -0.5383 H   0  0  0  0  0  0  0  0  0  0  0  0
    7.5588    3.6480    1.6557 H   0  0  0  0  0  0  0  0  0  0  0  0
    7.9008    3.8578    3.9358 H   0  0  0  0  0  0  0  0  0  0  0  0
    6.7667    4.6333    5.0468 H   0  0  0  0  0  0  0  0  0  0  0  0
    6.7325    5.1045    3.3437 H   0  0  0  0  0  0  0  0  0  0  0  0
    3.6869    0.3557    5.0135 H   0  0  0  0  0  0  0  0  0  0  0  0
    5.3543    0.6786    4.5296 H   0  0  0  0  0  0  0  0  0  0  0  0
    4.3097    1.9950    5.1954 H   0  0  0  0  0  0  0  0  0  0  0  0
    4.4076   -0.9066   -4.5969 H   0  0  0  0  0  0  0  0  0  0  0  0
    2.6009   -1.9278   -3.8905 H   0  0  0  0  0  0  0  0  0  0  0  0
   -0.1180   -1.1105   -3.4016 H   0  0  0  0  0  0  0  0  0  0  0  0
    0.4283   -2.6821   -4.0914 H   0  0  0  0  0  0  0  0  0  0  0  0
   -1.0032   -2.6050   -3.0551 H   0  0  0  0  0  0  0  0  0  0  0  0
   -5.7028   -1.5711    0.4788 H   0  0  0  0  0  0  0  0  0  0  0  0
   -5.9885   -3.3005    0.3429 H   0  0  0  0  0  0  0  0  0  0  0  0
   -5.4582   -2.4115   -1.0723 H   0  0  0  0  0  0  0  0  0  0  0  0
   -3.4461   -3.8647   -1.4754 H   0  0  0  0  0  0  0  0  0  0  0  0
   -2.5222   -4.4959   -0.1128 H   0  0  0  0  0  0  0  0  0  0  0  0
   -4.2342   -4.8570   -0.2402 H   0  0  0  0  0  0  0  0  0  0  0  0
   -3.6799   -4.1154    2.1904 H   0  0  0  0  0  0  0  0  0  0  0  0
   -4.1283   -2.4931    3.9122 H   0  0  0  0  0  0  0  0  0  0  0  0
   -4.3331   -1.1509    2.6450 H   0  0  0  0  0  0  0  0  0  0  0  0
  1  2  2  0
  2  3  1  0
  3  4  1  0
  3  5  1  0
  3  6  1  0
  6  7  2  0
  7  8  1  0
  8  9  1  0
  9 10  1  0
  9 11  2  0
 11 12  1  0
 12 13  1  0
 13 14  1  0
 14 15  1  0
 14 16  1  0
 14 17  1  0
 17 18  1  0
 18 19  1  0
 19 20  1  0
 20 21  1  0
 21 22  1  0
 22 23  2  0
 23 24  1  0
 24 25  2  0
 25 26  1  0
 26 27  1  0
 27 28  1  0
 26 29  2  0
 29 30  1  0
 30 31  1  0
 23 32  1  0
 32 33  2  0
 32 34  1  0
 34 35  1  0
 35 36  1  0
 35 37  2  0
 37 38  1  0
 38 39  1  0
 39 40  1  0
 12 41  2  0
 41 42  1  0
 42 43  1  0
 42 44  1  0
 42 45  1  0
 45 46  2  0
 41 47  1  0
 47 48  1  0
 48 49  1  0
 49 50  2  0
 49  6  1  0
 47  8  2  0
 18 11  1  0
 38 19  2  0
 34 20  2  0
 29 22  1  0
  1 51  1  0
  1 52  1  0
  2 53  1  0
  4 54  1  0
  4 55  1  0
  4 56  1  0
  5 57  1  0
  5 58  1  0
  5 59  1  0
  7 60  1  0
 10 61  1  0
 15 62  1  0
 15 63  1  0
 15 64  1  0
 16 65  1  0
 16 66  1  0
 16 67  1  0
 17 68  1  0
 17 69  1  0
 18 70  1  1
 21 71  1  0
 24 72  1  0
 25 73  1  0
 28 74  1  0
 28 75  1  0
 28 76  1  0
 31 77  1  0
 31 78  1  0
 31 79  1  0
 36 80  1  0
 37 81  1  0
 40 82  1  0
 40 83  1  0
 40 84  1  0
 43 85  1  0
 43 86  1  0
 43 87  1  0
 44 88  1  0
 44 89  1  0
 44 90  1  0
 45 91  1  0
 46 92  1  0
 46 93  1  0
M  END
>  <Name>  (477) 
Neoacrimarine-A

>  <PubChem ID>  (477) 
131752804

>  <CDB ID>  (477) 
CDB0477

>  <Smiles>  (477) 
C=CC(C)(C)C1=CC2=C(O)C3=C(OC(C)(C)C[C@H]3C3=C4NC5=C(C=CC(OC)=C5OC)C(=O)C4=C(O)C=C3OC)C(C(C)(C)C=C)=C2OC1=O

>  <Chemical class>  (477) 
5,7-Dioxygenated Coumarins

>  <Natural source>  (477) 
Citrus paradisi x C. tangerina

>  <Molecular Formula>  (477) 
C40H43NO9

>  <InChI-Key>  (477) 
MHPPNTXKFWUDIA-NRFANRHFSA-N

>  <Total Molweight>  (477) 
681.779

>  <cLogP>  (477) 
7.924

>  <cLogS>  (477) 
-9.006

>  <H-Acceptors>  (477) 
10

>  <H-Donors>  (477) 
3

>  <Rotatable Bonds>  (477) 
8

>  <Polar Surface Area>  (477) 
132.78

$$$$
CDB0478
     RDKit          3D

 57 60  0  0  0  0  0  0  0  0999 V2000
    6.1387    0.9269    1.9825 C   0  0  0  0  0  0  0  0  0  0  0  0
    5.2295   -0.0252    1.7289 C   0  0  0  0  0  0  0  0  0  0  0  0
    4.7688   -0.5368    0.3627 C   0  0  0  0  0  0  0  0  0  0  0  0
    5.1806   -2.0346    0.3436 C   0  0  0  0  0  0  0  0  0  0  0  0
    5.4998    0.1055   -0.8423 C   0  0  0  0  0  0  0  0  0  0  0  0
    3.2471   -0.3261    0.2157 C   0  0  0  0  0  0  0  0  0  0  0  0
    2.3507   -1.3203    0.0828 C   0  0  0  0  0  0  0  0  0  0  0  0
    0.9102   -1.1001   -0.0506 C   0  0  0  0  0  0  0  0  0  0  0  0
    0.0107   -2.1621   -0.1852 C   0  0  0  0  0  0  0  0  0  0  0  0
    0.5181   -3.4395   -0.1555 O   0  0  0  0  0  0  0  0  0  0  0  0
   -1.3615   -1.9242   -0.3327 C   0  0  0  0  0  0  0  0  0  0  0  0
   -1.8323   -0.5953   -0.2808 C   0  0  0  0  0  0  0  0  0  0  0  0
   -3.1696   -0.3208   -0.4090 O   0  0  0  0  0  0  0  0  0  0  0  0
   -4.1444   -1.3634   -0.2414 C   0  0  0  0  0  0  0  0  0  0  0  0
   -4.6720   -1.2988    1.1960 C   0  0  0  0  0  0  0  0  0  0  0  0
   -5.2776   -1.0319   -1.2202 C   0  0  0  0  0  0  0  0  0  0  0  0
   -3.6166   -2.7407   -0.5397 C   0  0  0  0  0  0  0  0  0  0  0  0
   -2.3098   -3.0075   -0.5978 C   0  0  0  0  0  0  0  0  0  0  0  0
   -0.9580    0.5217   -0.1423 C   0  0  0  0  0  0  0  0  0  0  0  0
   -1.5362    1.9758   -0.1110 C   0  0  0  0  0  0  0  0  0  0  0  0
   -2.3860    2.1444    1.1733 C   0  0  0  0  0  0  0  0  0  0  0  0
   -0.4859    3.1184   -0.0582 C   0  0  0  0  0  0  0  0  0  0  0  0
   -2.3362    2.2125   -1.4009 C   0  0  2  0  0  0  0  0  0  0  0  0
   -3.1141    3.4905   -1.6591 C   0  0  0  0  0  0  0  0  0  0  0  0
   -3.7674    2.2786   -1.2810 O   0  0  0  0  0  0  0  0  0  0  0  0
    0.4167    0.2073   -0.0339 C   0  0  0  0  0  0  0  0  0  0  0  0
    1.3652    1.2425    0.1072 O   0  0  0  0  0  0  0  0  0  0  0  0
    2.7416    1.0775    0.2242 C   0  0  0  0  0  0  0  0  0  0  0  0
    3.4679    2.0589    0.3214 O   0  0  0  0  0  0  0  0  0  0  0  0
    6.3735    1.2072    3.0050 H   0  0  0  0  0  0  0  0  0  0  0  0
    6.6537    1.4678    1.1959 H   0  0  0  0  0  0  0  0  0  0  0  0
    4.7547   -0.4971    2.5902 H   0  0  0  0  0  0  0  0  0  0  0  0
    4.7112   -2.6018    1.1570 H   0  0  0  0  0  0  0  0  0  0  0  0
    6.2660   -2.1490    0.4614 H   0  0  0  0  0  0  0  0  0  0  0  0
    4.9102   -2.5149   -0.6046 H   0  0  0  0  0  0  0  0  0  0  0  0
    5.1148   -0.2914   -1.7898 H   0  0  0  0  0  0  0  0  0  0  0  0
    5.3936    1.1938   -0.8802 H   0  0  0  0  0  0  0  0  0  0  0  0
    6.5757   -0.1071   -0.8153 H   0  0  0  0  0  0  0  0  0  0  0  0
    2.6637   -2.3590    0.0661 H   0  0  0  0  0  0  0  0  0  0  0  0
   -0.1684   -4.0325    0.1919 H   0  0  0  0  0  0  0  0  0  0  0  0
   -5.0745   -0.3040    1.4192 H   0  0  0  0  0  0  0  0  0  0  0  0
   -3.8674   -1.4745    1.9200 H   0  0  0  0  0  0  0  0  0  0  0  0
   -5.4612   -2.0373    1.3749 H   0  0  0  0  0  0  0  0  0  0  0  0
   -6.1047   -1.7469   -1.1492 H   0  0  0  0  0  0  0  0  0  0  0  0
   -4.9127   -1.0280   -2.2546 H   0  0  0  0  0  0  0  0  0  0  0  0
   -5.6756   -0.0280   -1.0310 H   0  0  0  0  0  0  0  0  0  0  0  0
   -4.3359   -3.5361   -0.7152 H   0  0  0  0  0  0  0  0  0  0  0  0
   -1.9616   -3.9996   -0.8563 H   0  0  0  0  0  0  0  0  0  0  0  0
   -3.2590    1.4877    1.2036 H   0  0  0  0  0  0  0  0  0  0  0  0
   -1.7884    1.9300    2.0676 H   0  0  0  0  0  0  0  0  0  0  0  0
   -2.7670    3.1678    1.2693 H   0  0  0  0  0  0  0  0  0  0  0  0
    0.1148    3.0824    0.8572 H   0  0  0  0  0  0  0  0  0  0  0  0
   -0.9651    4.1046   -0.0590 H   0  0  0  0  0  0  0  0  0  0  0  0
    0.1748    3.1008   -0.9326 H   0  0  0  0  0  0  0  0  0  0  0  0
   -1.9138    1.7208   -2.2700 H   0  0  0  0  0  0  0  0  0  0  0  0
   -3.1031    4.2920   -0.9329 H   0  0  0  0  0  0  0  0  0  0  0  0
   -3.2263    3.8193   -2.6850 H   0  0  0  0  0  0  0  0  0  0  0  0
  1  2  2  0
  2  3  1  0
  3  4  1  0
  3  5  1  0
  3  6  1  0
  6  7  2  0
  7  8  1  0
  8  9  1  0
  9 10  1  0
  9 11  2  0
 11 12  1  0
 12 13  1  0
 13 14  1  0
 14 15  1  0
 14 16  1  0
 14 17  1  0
 17 18  2  0
 12 19  2  0
 19 20  1  0
 20 21  1  0
 20 22  1  0
 20 23  1  0
 23 24  1  0
 24 25  1  0
 19 26  1  0
 26 27  1  0
 27 28  1  0
 28 29  2  0
 28  6  1  0
 26  8  2  0
 18 11  1  0
 25 23  1  0
  1 30  1  0
  1 31  1  0
  2 32  1  0
  4 33  1  0
  4 34  1  0
  4 35  1  0
  5 36  1  0
  5 37  1  0
  5 38  1  0
  7 39  1  0
 10 40  1  0
 15 41  1  0
 15 42  1  0
 15 43  1  0
 16 44  1  0
 16 45  1  0
 16 46  1  0
 17 47  1  0
 18 48  1  0
 21 49  1  0
 21 50  1  0
 21 51  1  0
 22 52  1  0
 22 53  1  0
 22 54  1  0
 23 55  1  6
 24 56  1  0
 24 57  1  0
M  END
>  <Name>  (478) 
Oxaclausarin

>  <PubChem ID>  (478) 
15101826

>  <CDB ID>  (478) 
CDB0478

>  <Smiles>  (478) 
C=CC(C)(C)C1=CC2=C(O)C3=C(OC(C)(C)C=C3)C(C(C)(C)[C@@H]3CO3)=C2OC1=O

>  <Chemical class>  (478) 
5,7-Dioxygenated Coumarins

>  <Natural source>  (478) 
Citrus hassaku

>  <Molecular Formula>  (478) 
C24H28O5

>  <InChI-Key>  (478) 
IYPNGWLLGHHVAB-INIZCTEOSA-N

>  <Total Molweight>  (478) 
396.481

>  <cLogP>  (478) 
4.9174

>  <cLogS>  (478) 
-5.278

>  <H-Acceptors>  (478) 
5

>  <H-Donors>  (478) 
1

>  <Rotatable Bonds>  (478) 
4

>  <Polar Surface Area>  (478) 
68.29

$$$$
CDB0479
     RDKit          3D

 47 50  0  0  0  0  0  0  0  0999 V2000
   -2.2027    3.5634   -0.8456 C   0  0  0  0  0  0  0  0  0  0  0  0
   -1.9029    2.0622   -0.8205 C   0  0  0  0  0  0  0  0  0  0  0  0
   -2.6444    1.3120    0.2836 C   0  0  0  0  0  0  0  0  0  0  0  0
   -2.4278   -0.0968    0.1293 O   0  0  0  0  0  0  0  0  0  0  0  0
   -1.1208   -0.5113    0.1120 C   0  0  0  0  0  0  0  0  0  0  0  0
   -0.8566   -1.8636    0.4300 C   0  0  0  0  0  0  0  0  0  0  0  0
   -1.8778   -2.8859    0.7711 C   0  0  0  0  0  0  0  0  0  0  0  0
   -1.4811   -4.1341    1.0634 C   0  0  0  0  0  0  0  0  0  0  0  0
   -0.0814   -4.5627    1.0698 C   0  0  0  0  0  0  0  0  0  0  0  0
    0.2282   -5.7143    1.3490 O   0  0  0  0  0  0  0  0  0  0  0  0
    0.8492   -3.5991    0.7473 O   0  0  0  0  0  0  0  0  0  0  0  0
    0.4889   -2.2651    0.4296 C   0  0  0  0  0  0  0  0  0  0  0  0
    1.5478   -1.3910    0.1316 C   0  0  0  0  0  0  0  0  0  0  0  0
    2.9394   -1.8298    0.1372 C   0  0  0  0  0  0  0  0  0  0  0  0
    3.8950   -0.9161   -0.0493 C   0  0  0  0  0  0  0  0  0  0  0  0
    3.5998    0.5432   -0.2776 C   0  0  0  0  0  0  0  0  0  0  0  0
    2.2112    0.8535   -0.5193 O   0  0  0  0  0  0  0  0  0  0  0  0
    1.2483   -0.0688   -0.1950 C   0  0  0  0  0  0  0  0  0  0  0  0
   -0.0860    0.3798   -0.2420 C   0  0  0  0  0  0  0  0  0  0  0  0
   -0.4040    1.8138   -0.6156 C   0  0  0  0  0  0  0  0  0  0  0  0
    0.2636    2.2158   -1.8139 O   0  0  0  0  0  0  0  0  0  0  0  0
    4.0397    1.3600    0.9424 C   0  0  0  0  0  0  0  0  0  0  0  0
    4.3560    1.0244   -1.5216 C   0  0  0  0  0  0  0  0  0  0  0  0
   -3.3455   -2.5644    0.7905 C   0  0  0  0  0  0  0  0  0  0  0  0
   -4.1571    1.5119    0.2415 C   0  0  0  0  0  0  0  0  0  0  0  0
   -3.2472    3.7540   -1.1107 H   0  0  0  0  0  0  0  0  0  0  0  0
   -2.0088    4.0223    0.1298 H   0  0  0  0  0  0  0  0  0  0  0  0
   -1.5849    4.0775   -1.5894 H   0  0  0  0  0  0  0  0  0  0  0  0
   -2.1925    1.6480   -1.7973 H   0  0  0  0  0  0  0  0  0  0  0  0
   -2.2900    1.6150    1.2787 H   0  0  0  0  0  0  0  0  0  0  0  0
   -2.1874   -4.9172    1.3164 H   0  0  0  0  0  0  0  0  0  0  0  0
    3.1804   -2.8736    0.3074 H   0  0  0  0  0  0  0  0  0  0  0  0
    4.9367   -1.2261   -0.0213 H   0  0  0  0  0  0  0  0  0  0  0  0
   -0.0340    2.4532    0.1969 H   0  0  0  0  0  0  0  0  0  0  0  0
    1.1665    1.8501   -1.7632 H   0  0  0  0  0  0  0  0  0  0  0  0
    3.8363    2.4266    0.7914 H   0  0  0  0  0  0  0  0  0  0  0  0
    3.4775    1.0637    1.8362 H   0  0  0  0  0  0  0  0  0  0  0  0
    5.1079    1.2387    1.1532 H   0  0  0  0  0  0  0  0  0  0  0  0
    5.4390    0.8933   -1.4210 H   0  0  0  0  0  0  0  0  0  0  0  0
    4.1544    2.0847   -1.7151 H   0  0  0  0  0  0  0  0  0  0  0  0
    4.0245    0.4807   -2.4146 H   0  0  0  0  0  0  0  0  0  0  0  0
   -3.6878   -2.2270   -0.1933 H   0  0  0  0  0  0  0  0  0  0  0  0
   -3.9519   -3.4419    1.0450 H   0  0  0  0  0  0  0  0  0  0  0  0
   -3.5710   -1.8031    1.5443 H   0  0  0  0  0  0  0  0  0  0  0  0
   -4.5598    1.2466   -0.7423 H   0  0  0  0  0  0  0  0  0  0  0  0
   -4.6482    0.8550    0.9683 H   0  0  0  0  0  0  0  0  0  0  0  0
   -4.4390    2.5428    0.4729 H   0  0  0  0  0  0  0  0  0  0  0  0
  1  2  1  0
  2  3  1  0
  3  4  1  0
  4  5  1  0
  5  6  2  0
  6  7  1  0
  7  8  2  0
  8  9  1  0
  9 10  2  0
  9 11  1  0
 11 12  1  0
 12 13  2  0
 13 14  1  0
 14 15  2  0
 15 16  1  0
 16 17  1  0
 17 18  1  0
 18 19  2  0
 19 20  1  0
 20 21  1  0
 16 22  1  0
 16 23  1  0
  7 24  1  0
  3 25  1  0
 20  2  1  0
 19  5  1  0
 12  6  1  0
 18 13  1  0
  1 26  1  0
  1 27  1  0
  1 28  1  0
  2 29  1  0
  3 30  1  0
  8 31  1  0
 14 32  1  0
 15 33  1  0
 20 34  1  0
 21 35  1  0
 22 36  1  0
 22 37  1  0
 22 38  1  0
 23 39  1  0
 23 40  1  0
 23 41  1  0
 24 42  1  0
 24 43  1  0
 24 44  1  0
 25 45  1  0
 25 46  1  0
 25 47  1  0
M  END
>  <Name>  (479) 
Pseudocordatolide C

>  <PubChem ID>  (479) 
467236

>  <CDB ID>  (479) 
CDB0479

>  <Smiles>  (479) 
CC1C(OC2=C3C(=CC(=O)OC3=C4C=CC(OC4=C2C1O)(C)C)C)C

>  <Chemical class>  (479) 
5,7-Dioxygenated Coumarins

>  <Natural source>  (479) 
Calophyllum lanigerum var. austrocoriaceum

>  <Molecular Formula>  (479) 
C20H22O5

>  <InChI-Key>  (479) 
AAPFBQWCKBJQGL-UHFFFAOYSA-N

>  <Total Molweight>  (479) 
342.39

>  <cLogP>  (479) 
3.0381

>  <cLogS>  (479) 
-3.985

>  <H-Acceptors>  (479) 
5

>  <H-Donors>  (479) 
1

>  <Rotatable Bonds>  (479) 
0

>  <Polar Surface Area>  (479) 
64.99

$$$$
CDB0480
     RDKit          3D

 48 50  0  0  0  0  0  0  0  0999 V2000
    6.2004   -0.2891   -0.6550 C   0  0  0  0  0  0  0  0  0  0  0  0
    4.9437   -0.7233    0.0278 C   0  0  0  0  0  0  0  0  0  0  0  0
    3.7227   -0.1562   -0.0446 C   0  0  0  0  0  0  0  0  0  0  0  0
    3.3832    1.0893   -0.8072 C   0  0  0  0  0  0  0  0  0  0  0  0
    2.6372   -0.8339    0.7489 C   0  0  0  0  0  0  0  0  0  0  0  0
    2.8567   -1.6718    1.6186 O   0  0  0  0  0  0  0  0  0  0  0  0
    1.2374   -0.4775    0.4607 C   0  0  0  0  0  0  0  0  0  0  0  0
    0.5512    0.3987    1.3018 C   0  0  0  0  0  0  0  0  0  0  0  0
   -0.7715    0.7579    1.0016 C   0  0  0  0  0  0  0  0  0  0  0  0
   -1.4190    0.1699   -0.1078 C   0  0  0  0  0  0  0  0  0  0  0  0
   -0.7480   -0.7462   -0.9546 C   0  0  0  0  0  0  0  0  0  0  0  0
    0.5872   -1.0433   -0.6428 C   0  0  0  0  0  0  0  0  0  0  0  0
    1.3495   -1.9264   -1.4415 O   0  0  0  0  0  0  0  0  0  0  0  0
    0.8318   -2.5403   -2.5626 C   0  0  0  0  0  0  0  0  0  0  0  0
    1.4909   -3.2864   -3.2751 O   0  0  0  0  0  0  0  0  0  0  0  0
   -0.5703   -2.2455   -2.8677 C   0  0  0  0  0  0  0  0  0  0  0  0
   -1.3352   -1.4151   -2.1421 C   0  0  0  0  0  0  0  0  0  0  0  0
   -2.7647   -1.1952   -2.5492 C   0  0  0  0  0  0  0  0  0  0  0  0
   -2.7071    0.5130   -0.4332 O   0  0  0  0  0  0  0  0  0  0  0  0
   -3.5449    1.1561    0.5460 C   0  0  0  0  0  0  0  0  0  0  0  0
   -2.7855    1.9370    1.5836 C   0  0  0  0  0  0  0  0  0  0  0  0
   -1.4788    1.7632    1.7931 C   0  0  0  0  0  0  0  0  0  0  0  0
   -4.4467    2.1096   -0.2474 C   0  0  0  0  0  0  0  0  0  0  0  0
   -4.4019    0.0759    1.2155 C   0  0  0  0  0  0  0  0  0  0  0  0
    1.2090    0.9805    2.3583 O   0  0  0  0  0  0  0  0  0  0  0  0
    1.0156    0.2158    3.5533 C   0  0  0  0  0  0  0  0  0  0  0  0
    6.9289    0.0484    0.0886 H   0  0  0  0  0  0  0  0  0  0  0  0
    6.6339   -1.1378   -1.1941 H   0  0  0  0  0  0  0  0  0  0  0  0
    6.0512    0.5134   -1.3797 H   0  0  0  0  0  0  0  0  0  0  0  0
    5.0696   -1.6201    0.6371 H   0  0  0  0  0  0  0  0  0  0  0  0
    2.7710    0.8512   -1.6827 H   0  0  0  0  0  0  0  0  0  0  0  0
    2.8336    1.7941   -0.1746 H   0  0  0  0  0  0  0  0  0  0  0  0
    4.2667    1.6266   -1.1603 H   0  0  0  0  0  0  0  0  0  0  0  0
   -0.9512   -2.7593   -3.7439 H   0  0  0  0  0  0  0  0  0  0  0  0
   -2.9400   -0.1490   -2.8201 H   0  0  0  0  0  0  0  0  0  0  0  0
   -3.0350   -1.7931   -3.4278 H   0  0  0  0  0  0  0  0  0  0  0  0
   -3.4513   -1.4923   -1.7498 H   0  0  0  0  0  0  0  0  0  0  0  0
   -3.3324    2.6549    2.1890 H   0  0  0  0  0  0  0  0  0  0  0  0
   -0.9429    2.3354    2.5424 H   0  0  0  0  0  0  0  0  0  0  0  0
   -4.9993    1.5677   -1.0242 H   0  0  0  0  0  0  0  0  0  0  0  0
   -3.8508    2.8694   -0.7677 H   0  0  0  0  0  0  0  0  0  0  0  0
   -5.1710    2.6212    0.3959 H   0  0  0  0  0  0  0  0  0  0  0  0
   -3.7767   -0.6465    1.7538 H   0  0  0  0  0  0  0  0  0  0  0  0
   -5.1179    0.5044    1.9254 H   0  0  0  0  0  0  0  0  0  0  0  0
   -4.9591   -0.4987    0.4665 H   0  0  0  0  0  0  0  0  0  0  0  0
    1.1201   -0.8617    3.3886 H   0  0  0  0  0  0  0  0  0  0  0  0
    1.7773    0.5261    4.2745 H   0  0  0  0  0  0  0  0  0  0  0  0
    0.0324    0.4291    3.9846 H   0  0  0  0  0  0  0  0  0  0  0  0
  1  2  1  0
  2  3  2  3
  3  4  1  0
  3  5  1  0
  5  6  2  0
  5  7  1  0
  7  8  2  0
  8  9  1  0
  9 10  2  0
 10 11  1  0
 11 12  2  0
 12 13  1  0
 13 14  1  0
 14 15  2  0
 14 16  1  0
 16 17  2  0
 17 18  1  0
 10 19  1  0
 19 20  1  0
 20 21  1  0
 21 22  2  0
 20 23  1  0
 20 24  1  0
  8 25  1  0
 25 26  1  0
 12  7  1  0
 22  9  1  0
 17 11  1  0
  1 27  1  0
  1 28  1  0
  1 29  1  0
  2 30  1  0
  4 31  1  0
  4 32  1  0
  4 33  1  0
 16 34  1  0
 18 35  1  0
 18 36  1  0
 18 37  1  0
 21 38  1  0
 22 39  1  0
 23 40  1  0
 23 41  1  0
 23 42  1  0
 24 43  1  0
 24 44  1  0
 24 45  1  0
 26 46  1  0
 26 47  1  0
 26 48  1  0
M  END
>  <Name>  (480) 
Oblongulide

>  <PubChem ID>  (480) 
6450922

>  <CDB ID>  (480) 
CDB0480

>  <Smiles>  (480) 
CC=C(C)C(=O)C1=C(C2=C(C3=C1OC(=O)C=C3C)OC(C=C2)(C)C)OC

>  <Chemical class>  (480) 
5,7-Dioxygenated Coumarins

>  <Natural source>  (480) 
Calophyllum cordatooblongum

>  <Molecular Formula>  (480) 
C21H22O5

>  <InChI-Key>  (480) 
MBFFYFBHNRLSMO-UHFFFAOYSA-N

>  <Total Molweight>  (480) 
354.401

>  <cLogP>  (480) 
3.6665

>  <cLogS>  (480) 
-4.496

>  <H-Acceptors>  (480) 
5

>  <H-Donors>  (480) 
0

>  <Rotatable Bonds>  (480) 
3

>  <Polar Surface Area>  (480) 
61.83

$$$$
CDB0481
     RDKit          3D

 47 50  0  0  0  0  0  0  0  0999 V2000
   -5.1416   -0.3281   -1.1080 C   0  0  0  0  0  0  0  0  0  0  0  0
   -3.6423   -0.0684   -1.2499 C   0  0  0  0  0  0  0  0  0  0  0  0
   -3.2339    1.3364   -0.7930 C   0  0  0  0  0  0  0  0  0  0  0  0
   -1.8504    1.5862   -1.0874 O   0  0  0  0  0  0  0  0  0  0  0  0
   -0.9534    0.6033   -0.7466 C   0  0  0  0  0  0  0  0  0  0  0  0
   -1.3417   -0.7089   -0.4708 C   0  0  0  0  0  0  0  0  0  0  0  0
   -2.7879   -1.1232   -0.5436 C   0  0  0  0  0  0  0  0  0  0  0  0
   -3.2769   -1.3680    0.7724 O   0  0  0  0  0  0  0  0  0  0  0  0
   -0.3415   -1.6386   -0.1291 C   0  0  0  0  0  0  0  0  0  0  0  0
    1.0256   -1.3240   -0.0711 C   0  0  0  0  0  0  0  0  0  0  0  0
    1.9650   -2.4133    0.2951 C   0  0  0  0  0  0  0  0  0  0  0  0
    1.4783   -3.6357    0.5592 C   0  0  0  0  0  0  0  0  0  0  0  0
    0.0546   -3.9713    0.5121 C   0  0  0  0  0  0  0  0  0  0  0  0
   -0.3439   -5.0994    0.7723 O   0  0  0  0  0  0  0  0  0  0  0  0
   -0.8018   -2.9462    0.1661 O   0  0  0  0  0  0  0  0  0  0  0  0
    3.4476   -2.1837    0.3797 C   0  0  0  0  0  0  0  0  0  0  0  0
    1.3844    0.0084   -0.3676 C   0  0  0  0  0  0  0  0  0  0  0  0
    0.4072    0.9657   -0.7102 C   0  0  0  0  0  0  0  0  0  0  0  0
    0.8260    2.3291   -1.0376 C   0  0  0  0  0  0  0  0  0  0  0  0
    2.0997    2.6750   -0.8398 C   0  0  0  0  0  0  0  0  0  0  0  0
    3.1244    1.7096   -0.3120 C   0  0  0  0  0  0  0  0  0  0  0  0
    2.7178    0.3295   -0.3535 O   0  0  0  0  0  0  0  0  0  0  0  0
    3.4688    2.0494    1.1426 C   0  0  0  0  0  0  0  0  0  0  0  0
    4.3904    1.7933   -1.1733 C   0  0  0  0  0  0  0  0  0  0  0  0
   -3.5198    1.7106    0.6614 C   0  0  0  0  0  0  0  0  0  0  0  0
   -5.4746   -0.3002   -0.0662 H   0  0  0  0  0  0  0  0  0  0  0  0
   -5.7160    0.4203   -1.6641 H   0  0  0  0  0  0  0  0  0  0  0  0
   -5.3982   -1.3129   -1.5130 H   0  0  0  0  0  0  0  0  0  0  0  0
   -3.3977   -0.1294   -2.3213 H   0  0  0  0  0  0  0  0  0  0  0  0
   -3.7889    2.0529   -1.4124 H   0  0  0  0  0  0  0  0  0  0  0  0
   -2.8780   -2.0601   -1.1081 H   0  0  0  0  0  0  0  0  0  0  0  0
   -2.7294   -2.0812    1.1472 H   0  0  0  0  0  0  0  0  0  0  0  0
    2.1231   -4.4642    0.8316 H   0  0  0  0  0  0  0  0  0  0  0  0
    3.6862   -1.4313    1.1383 H   0  0  0  0  0  0  0  0  0  0  0  0
    3.8541   -1.8766   -0.5895 H   0  0  0  0  0  0  0  0  0  0  0  0
    3.9855   -3.0949    0.6669 H   0  0  0  0  0  0  0  0  0  0  0  0
    0.0967    3.0412   -1.4079 H   0  0  0  0  0  0  0  0  0  0  0  0
    2.4121    3.6953   -1.0446 H   0  0  0  0  0  0  0  0  0  0  0  0
    4.2177    1.3535    1.5383 H   0  0  0  0  0  0  0  0  0  0  0  0
    3.8571    3.0689    1.2435 H   0  0  0  0  0  0  0  0  0  0  0  0
    2.5881    1.9526    1.7887 H   0  0  0  0  0  0  0  0  0  0  0  0
    5.1514    1.0884   -0.8176 H   0  0  0  0  0  0  0  0  0  0  0  0
    4.8250    2.7989   -1.1692 H   0  0  0  0  0  0  0  0  0  0  0  0
    4.1756    1.5149   -2.2122 H   0  0  0  0  0  0  0  0  0  0  0  0
   -4.5796    1.6066    0.9080 H   0  0  0  0  0  0  0  0  0  0  0  0
   -2.9324    1.1159    1.3669 H   0  0  0  0  0  0  0  0  0  0  0  0
   -3.2326    2.7537    0.8376 H   0  0  0  0  0  0  0  0  0  0  0  0
  1  2  1  0
  2  3  1  0
  3  4  1  0
  4  5  1  0
  5  6  2  0
  6  7  1  0
  7  8  1  0
  6  9  1  0
  9 10  2  0
 10 11  1  0
 11 12  2  0
 12 13  1  0
 13 14  2  0
 13 15  1  0
 11 16  1  0
 10 17  1  0
 17 18  2  0
 18 19  1  0
 19 20  2  0
 20 21  1  0
 21 22  1  0
 21 23  1  0
 21 24  1  0
  3 25  1  0
  7  2  1  0
 18  5  1  0
 15  9  1  0
 22 17  1  0
  1 26  1  0
  1 27  1  0
  1 28  1  0
  2 29  1  0
  3 30  1  0
  7 31  1  0
  8 32  1  0
 12 33  1  0
 16 34  1  0
 16 35  1  0
 16 36  1  0
 19 37  1  0
 20 38  1  0
 23 39  1  0
 23 40  1  0
 23 41  1  0
 24 42  1  0
 24 43  1  0
 24 44  1  0
 25 45  1  0
 25 46  1  0
 25 47  1  0
M  END
>  <Name>  (481) 
Cordatolide B

>  <PubChem ID>  (481) 
469581

>  <CDB ID>  (481) 
CDB0481

>  <Smiles>  (481) 
CC1C(OC2=C(C1O)C3=C(C(=CC(=O)O3)C)C4=C2C=CC(O4)(C)C)C

>  <Chemical class>  (481) 
5,7-Dioxygenated Coumarins

>  <Natural source>  (481) 
Calophyllum cordatooblongum

>  <Molecular Formula>  (481) 
C20H22O5

>  <InChI-Key>  (481) 
VFKOXOKVQKGOTG-UHFFFAOYSA-N

>  <Total Molweight>  (481) 
342.39

>  <cLogP>  (481) 
3.0381

>  <cLogS>  (481) 
-3.985

>  <H-Acceptors>  (481) 
5

>  <H-Donors>  (481) 
1

>  <Rotatable Bonds>  (481) 
0

>  <Polar Surface Area>  (481) 
64.99

$$$$
CDB0482
     RDKit          3D

 47 50  0  0  0  0  0  0  0  0999 V2000
   -5.1416   -0.3281   -1.1080 C   0  0  0  0  0  0  0  0  0  0  0  0
   -3.6423   -0.0684   -1.2499 C   0  0  0  0  0  0  0  0  0  0  0  0
   -3.2339    1.3364   -0.7930 C   0  0  0  0  0  0  0  0  0  0  0  0
   -1.8504    1.5862   -1.0874 O   0  0  0  0  0  0  0  0  0  0  0  0
   -0.9534    0.6033   -0.7466 C   0  0  0  0  0  0  0  0  0  0  0  0
   -1.3417   -0.7089   -0.4708 C   0  0  0  0  0  0  0  0  0  0  0  0
   -2.7879   -1.1232   -0.5436 C   0  0  0  0  0  0  0  0  0  0  0  0
   -3.2769   -1.3680    0.7724 O   0  0  0  0  0  0  0  0  0  0  0  0
   -0.3415   -1.6386   -0.1291 C   0  0  0  0  0  0  0  0  0  0  0  0
    1.0256   -1.3240   -0.0711 C   0  0  0  0  0  0  0  0  0  0  0  0
    1.9650   -2.4133    0.2951 C   0  0  0  0  0  0  0  0  0  0  0  0
    1.4783   -3.6357    0.5592 C   0  0  0  0  0  0  0  0  0  0  0  0
    0.0546   -3.9713    0.5121 C   0  0  0  0  0  0  0  0  0  0  0  0
   -0.3439   -5.0994    0.7723 O   0  0  0  0  0  0  0  0  0  0  0  0
   -0.8018   -2.9462    0.1661 O   0  0  0  0  0  0  0  0  0  0  0  0
    3.4476   -2.1837    0.3797 C   0  0  0  0  0  0  0  0  0  0  0  0
    1.3844    0.0084   -0.3676 C   0  0  0  0  0  0  0  0  0  0  0  0
    0.4072    0.9657   -0.7102 C   0  0  0  0  0  0  0  0  0  0  0  0
    0.8260    2.3291   -1.0376 C   0  0  0  0  0  0  0  0  0  0  0  0
    2.0997    2.6750   -0.8398 C   0  0  0  0  0  0  0  0  0  0  0  0
    3.1244    1.7096   -0.3120 C   0  0  0  0  0  0  0  0  0  0  0  0
    2.7178    0.3295   -0.3535 O   0  0  0  0  0  0  0  0  0  0  0  0
    3.4688    2.0494    1.1426 C   0  0  0  0  0  0  0  0  0  0  0  0
    4.3904    1.7933   -1.1733 C   0  0  0  0  0  0  0  0  0  0  0  0
   -3.5198    1.7106    0.6614 C   0  0  0  0  0  0  0  0  0  0  0  0
   -5.4746   -0.3002   -0.0662 H   0  0  0  0  0  0  0  0  0  0  0  0
   -5.7160    0.4203   -1.6641 H   0  0  0  0  0  0  0  0  0  0  0  0
   -5.3982   -1.3129   -1.5130 H   0  0  0  0  0  0  0  0  0  0  0  0
   -3.3977   -0.1294   -2.3213 H   0  0  0  0  0  0  0  0  0  0  0  0
   -3.7889    2.0529   -1.4124 H   0  0  0  0  0  0  0  0  0  0  0  0
   -2.8780   -2.0601   -1.1081 H   0  0  0  0  0  0  0  0  0  0  0  0
   -2.7294   -2.0812    1.1472 H   0  0  0  0  0  0  0  0  0  0  0  0
    2.1231   -4.4642    0.8316 H   0  0  0  0  0  0  0  0  0  0  0  0
    3.6862   -1.4313    1.1383 H   0  0  0  0  0  0  0  0  0  0  0  0
    3.8541   -1.8766   -0.5895 H   0  0  0  0  0  0  0  0  0  0  0  0
    3.9855   -3.0949    0.6669 H   0  0  0  0  0  0  0  0  0  0  0  0
    0.0967    3.0412   -1.4079 H   0  0  0  0  0  0  0  0  0  0  0  0
    2.4121    3.6953   -1.0446 H   0  0  0  0  0  0  0  0  0  0  0  0
    4.2177    1.3535    1.5383 H   0  0  0  0  0  0  0  0  0  0  0  0
    3.8571    3.0689    1.2435 H   0  0  0  0  0  0  0  0  0  0  0  0
    2.5881    1.9526    1.7887 H   0  0  0  0  0  0  0  0  0  0  0  0
    5.1514    1.0884   -0.8176 H   0  0  0  0  0  0  0  0  0  0  0  0
    4.8250    2.7989   -1.1692 H   0  0  0  0  0  0  0  0  0  0  0  0
    4.1756    1.5149   -2.2122 H   0  0  0  0  0  0  0  0  0  0  0  0
   -4.5796    1.6066    0.9080 H   0  0  0  0  0  0  0  0  0  0  0  0
   -2.9324    1.1159    1.3669 H   0  0  0  0  0  0  0  0  0  0  0  0
   -3.2326    2.7537    0.8376 H   0  0  0  0  0  0  0  0  0  0  0  0
  1  2  1  0
  2  3  1  0
  3  4  1  0
  4  5  1  0
  5  6  2  0
  6  7  1  0
  7  8  1  0
  6  9  1  0
  9 10  2  0
 10 11  1  0
 11 12  2  0
 12 13  1  0
 13 14  2  0
 13 15  1  0
 11 16  1  0
 10 17  1  0
 17 18  2  0
 18 19  1  0
 19 20  2  0
 20 21  1  0
 21 22  1  0
 21 23  1  0
 21 24  1  0
  3 25  1  0
  7  2  1  0
 18  5  1  0
 15  9  1  0
 22 17  1  0
  1 26  1  0
  1 27  1  0
  1 28  1  0
  2 29  1  0
  3 30  1  0
  7 31  1  0
  8 32  1  0
 12 33  1  0
 16 34  1  0
 16 35  1  0
 16 36  1  0
 19 37  1  0
 20 38  1  0
 23 39  1  0
 23 40  1  0
 23 41  1  0
 24 42  1  0
 24 43  1  0
 24 44  1  0
 25 45  1  0
 25 46  1  0
 25 47  1  0
M  END
>  <Name>  (482) 
Cordatolide A

>  <PubChem ID>  (482) 
126938

>  <CDB ID>  (482) 
CDB0482

>  <Smiles>  (482) 
CC1C(OC2=C(C1O)C3=C(C(=CC(=O)O3)C)C4=C2C=CC(O4)(C)C)C

>  <Chemical class>  (482) 
5,7-Dioxygenated Coumarins

>  <Natural source>  (482) 
Calophyllum cordatooblongum

>  <Molecular Formula>  (482) 
C20H22O5

>  <InChI-Key>  (482) 
VFKOXOKVQKGOTG-UHFFFAOYSA-N

>  <Total Molweight>  (482) 
342.39

>  <cLogP>  (482) 
3.0381

>  <cLogS>  (482) 
-3.985

>  <H-Acceptors>  (482) 
5

>  <H-Donors>  (482) 
1

>  <Rotatable Bonds>  (482) 
0

>  <Polar Surface Area>  (482) 
64.99

$$$$
CDB0483
     RDKit          3D

 52 53  0  0  0  0  0  0  0  0999 V2000
   -3.0413   -3.0796    3.2977 C   0  0  0  0  0  0  0  0  0  0  0  0
   -3.4407   -3.2674    1.8399 C   0  0  0  0  0  0  0  0  0  0  0  0
   -2.7515   -2.2744    0.8869 C   0  0  0  0  0  0  0  0  0  0  0  0
   -1.2656   -2.4252    0.5997 C   0  0  0  0  0  0  0  0  0  0  0  0
   -0.5697   -3.5080    0.9839 C   0  0  0  0  0  0  0  0  0  0  0  0
    0.8722   -3.6803    0.7905 C   0  0  0  0  0  0  0  0  0  0  0  0
    1.4410   -4.7036    1.1498 O   0  0  0  0  0  0  0  0  0  0  0  0
    1.5364   -2.6246    0.2085 O   0  0  0  0  0  0  0  0  0  0  0  0
    0.8625   -1.4737   -0.2669 C   0  0  0  0  0  0  0  0  0  0  0  0
   -0.5316   -1.3434   -0.1184 C   0  0  0  0  0  0  0  0  0  0  0  0
   -1.1135   -0.1896   -0.6820 C   0  0  0  0  0  0  0  0  0  0  0  0
   -0.3236    0.8153   -1.2697 C   0  0  0  0  0  0  0  0  0  0  0  0
    1.0576    0.6284   -1.4180 C   0  0  0  0  0  0  0  0  0  0  0  0
    1.6765   -0.5174   -0.9134 C   0  0  0  0  0  0  0  0  0  0  0  0
    3.1750   -0.7132   -1.0250 C   0  0  0  0  0  0  0  0  0  0  0  0
    3.8981   -0.3372    0.2428 C   0  0  0  0  0  0  0  0  0  0  0  0
    4.7016    0.7220    0.4650 C   0  0  0  0  0  0  0  0  0  0  0  0
    5.0276    1.7918   -0.5401 C   0  0  0  0  0  0  0  0  0  0  0  0
    5.3527    0.9203    1.8092 C   0  0  0  0  0  0  0  0  0  0  0  0
    1.8361    1.5531   -2.0674 O   0  0  0  0  0  0  0  0  0  0  0  0
   -0.9029    2.1009   -1.7275 C   0  0  0  0  0  0  0  0  0  0  0  0
   -0.5330    2.5422   -2.8156 O   0  0  0  0  0  0  0  0  0  0  0  0
   -1.8294    2.8696   -0.8057 C   0  0  0  0  0  0  0  0  0  0  0  0
   -3.1135    3.2641   -1.5275 C   0  0  0  0  0  0  0  0  0  0  0  0
   -4.0612    4.0154   -0.6072 C   0  0  0  0  0  0  0  0  0  0  0  0
   -2.4798   -0.0638   -0.7120 O   0  0  0  0  0  0  0  0  0  0  0  0
   -1.9750   -3.2582    3.4590 H   0  0  0  0  0  0  0  0  0  0  0  0
   -3.2716   -2.0644    3.6368 H   0  0  0  0  0  0  0  0  0  0  0  0
   -3.5968   -3.7788    3.9310 H   0  0  0  0  0  0  0  0  0  0  0  0
   -4.5244   -3.1101    1.7669 H   0  0  0  0  0  0  0  0  0  0  0  0
   -3.2632   -4.3021    1.5268 H   0  0  0  0  0  0  0  0  0  0  0  0
   -2.9332   -1.2765    1.3052 H   0  0  0  0  0  0  0  0  0  0  0  0
   -3.2827   -2.3392   -0.0716 H   0  0  0  0  0  0  0  0  0  0  0  0
   -1.0263   -4.3479    1.4929 H   0  0  0  0  0  0  0  0  0  0  0  0
    3.3889   -1.7668   -1.2477 H   0  0  0  0  0  0  0  0  0  0  0  0
    3.5672   -0.1828   -1.8978 H   0  0  0  0  0  0  0  0  0  0  0  0
    3.7457   -1.0443    1.0586 H   0  0  0  0  0  0  0  0  0  0  0  0
    4.5592    1.6371   -1.5133 H   0  0  0  0  0  0  0  0  0  0  0  0
    6.1097    1.8356   -0.7033 H   0  0  0  0  0  0  0  0  0  0  0  0
    4.6959    2.7676   -0.1697 H   0  0  0  0  0  0  0  0  0  0  0  0
    5.0918    0.1286    2.5194 H   0  0  0  0  0  0  0  0  0  0  0  0
    5.0385    1.8742    2.2454 H   0  0  0  0  0  0  0  0  0  0  0  0
    6.4426    0.9268    1.7050 H   0  0  0  0  0  0  0  0  0  0  0  0
    1.2549    2.1385   -2.6019 H   0  0  0  0  0  0  0  0  0  0  0  0
   -1.2866    3.7638   -0.4762 H   0  0  0  0  0  0  0  0  0  0  0  0
   -2.0550    2.2957    0.0980 H   0  0  0  0  0  0  0  0  0  0  0  0
   -2.8786    3.8931   -2.3944 H   0  0  0  0  0  0  0  0  0  0  0  0
   -3.6170    2.3715   -1.9161 H   0  0  0  0  0  0  0  0  0  0  0  0
   -4.9726    4.2929   -1.1460 H   0  0  0  0  0  0  0  0  0  0  0  0
   -3.5969    4.9322   -0.2300 H   0  0  0  0  0  0  0  0  0  0  0  0
   -4.3481    3.3972    0.2495 H   0  0  0  0  0  0  0  0  0  0  0  0
   -2.7463    0.1948   -1.6136 H   0  0  0  0  0  0  0  0  0  0  0  0
  1  2  1  0
  2  3  1  0
  3  4  1  0
  4  5  2  0
  5  6  1  0
  6  7  2  0
  6  8  1  0
  8  9  1  0
  9 10  2  0
 10 11  1  0
 11 12  2  0
 12 13  1  0
 13 14  2  0
 14 15  1  0
 15 16  1  0
 16 17  2  3
 17 18  1  0
 17 19  1  0
 13 20  1  0
 12 21  1  0
 21 22  2  0
 21 23  1  0
 23 24  1  0
 24 25  1  0
 11 26  1  0
 10  4  1  0
 14  9  1  0
  1 27  1  0
  1 28  1  0
  1 29  1  0
  2 30  1  0
  2 31  1  0
  3 32  1  0
  3 33  1  0
  5 34  1  0
 15 35  1  0
 15 36  1  0
 16 37  1  0
 18 38  1  0
 18 39  1  0
 18 40  1  0
 19 41  1  0
 19 42  1  0
 19 43  1  0
 20 44  1  0
 23 45  1  0
 23 46  1  0
 24 47  1  0
 24 48  1  0
 25 49  1  0
 25 50  1  0
 25 51  1  0
 26 52  1  0
M  END
>  <Name>  (483) 
Mammea B/Ac

>  <PubChem ID>  (483) 
44546134

>  <CDB ID>  (483) 
CDB0483

>  <Smiles>  (483) 
CCCC1=CC(=O)OC2=C1C(=C(C(=C2CC=C(C)C)O)C(=O)CCC)O

>  <Chemical class>  (483) 
5,7-Dioxygenated Coumarins

>  <Natural source>  (483) 
Calophyllum cordatooblongum

>  <Molecular Formula>  (483) 
C21H26O5

>  <InChI-Key>  (483) 
HDHKEYMZRICGLG-UHFFFAOYSA-N

>  <Total Molweight>  (483) 
358.432

>  <cLogP>  (483) 
4.5955

>  <cLogS>  (483) 
-4.21

>  <H-Acceptors>  (483) 
5

>  <H-Donors>  (483) 
2

>  <Rotatable Bonds>  (483) 
7

>  <Polar Surface Area>  (483) 
83.83

$$$$
CDB0484
     RDKit          3D

 55 56  0  0  0  0  0  0  0  0999 V2000
    0.2800    5.6326   -1.6836 C   0  0  0  0  0  0  0  0  0  0  0  0
   -0.4684    4.3720   -1.2787 C   0  0  0  0  0  0  0  0  0  0  0  0
   -0.2741    4.0622    0.2098 C   0  0  0  0  0  0  0  0  0  0  0  0
   -0.9558    2.7777    0.6269 C   0  0  0  0  0  0  0  0  0  0  0  0
   -2.1640    2.8570    1.2086 C   0  0  0  0  0  0  0  0  0  0  0  0
   -2.9306    1.6977    1.6668 C   0  0  0  0  0  0  0  0  0  0  0  0
   -4.0304    1.8265    2.1898 O   0  0  0  0  0  0  0  0  0  0  0  0
   -2.3370    0.4691    1.4761 O   0  0  0  0  0  0  0  0  0  0  0  0
   -1.0634    0.3153    0.8720 C   0  0  0  0  0  0  0  0  0  0  0  0
   -0.6143   -1.0201    0.7332 C   0  0  0  0  0  0  0  0  0  0  0  0
   -1.4907   -2.1649    1.2004 C   0  0  0  0  0  0  0  0  0  0  0  0
   -2.4475   -2.6194    0.1300 C   0  0  0  0  0  0  0  0  0  0  0  0
   -3.7950   -2.5751    0.1460 C   0  0  0  0  0  0  0  0  0  0  0  0
   -4.6419   -2.0408    1.2699 C   0  0  0  0  0  0  0  0  0  0  0  0
   -4.5918   -3.0730   -1.0333 C   0  0  0  0  0  0  0  0  0  0  0  0
    0.6371   -1.2247    0.1428 C   0  0  0  0  0  0  0  0  0  0  0  0
    1.1151   -2.4798   -0.1107 O   0  0  0  0  0  0  0  0  0  0  0  0
    1.4241   -0.1315   -0.2290 C   0  0  0  0  0  0  0  0  0  0  0  0
    2.7785   -0.3109   -0.7968 C   0  0  0  0  0  0  0  0  0  0  0  0
    2.9632    0.1762   -1.9168 O   0  0  0  0  0  0  0  0  0  0  0  0
    3.9381   -0.8580    0.0443 C   0  0  1  0  0  0  0  0  0  0  0  0
    3.6160   -1.3841    1.4405 C   0  0  0  0  0  0  0  0  0  0  0  0
    4.8059   -1.8332   -0.7706 C   0  0  0  0  0  0  0  0  0  0  0  0
    4.1211   -3.1385   -1.1482 C   0  0  0  0  0  0  0  0  0  0  0  0
    0.9219    1.1833   -0.1288 C   0  0  0  0  0  0  0  0  0  0  0  0
    1.6804    2.2192   -0.6203 O   0  0  0  0  0  0  0  0  0  0  0  0
   -0.3345    1.4416    0.4452 C   0  0  0  0  0  0  0  0  0  0  0  0
   -0.0668    6.4971   -1.1086 H   0  0  0  0  0  0  0  0  0  0  0  0
    0.1190    5.8443   -2.7453 H   0  0  0  0  0  0  0  0  0  0  0  0
    1.3563    5.5186   -1.5193 H   0  0  0  0  0  0  0  0  0  0  0  0
   -0.1280    3.5397   -1.9041 H   0  0  0  0  0  0  0  0  0  0  0  0
   -1.5359    4.5081   -1.4915 H   0  0  0  0  0  0  0  0  0  0  0  0
   -0.6937    4.9011    0.7838 H   0  0  0  0  0  0  0  0  0  0  0  0
    0.7837    4.0584    0.4925 H   0  0  0  0  0  0  0  0  0  0  0  0
   -2.6594    3.8083    1.3708 H   0  0  0  0  0  0  0  0  0  0  0  0
   -1.9937   -1.8862    2.1308 H   0  0  0  0  0  0  0  0  0  0  0  0
   -0.8661   -3.0175    1.4947 H   0  0  0  0  0  0  0  0  0  0  0  0
   -1.9694   -3.0301   -0.7590 H   0  0  0  0  0  0  0  0  0  0  0  0
   -5.3362   -2.8140    1.6157 H   0  0  0  0  0  0  0  0  0  0  0  0
   -5.2273   -1.1830    0.9224 H   0  0  0  0  0  0  0  0  0  0  0  0
   -4.0667   -1.7143    2.1376 H   0  0  0  0  0  0  0  0  0  0  0  0
   -3.9528   -3.4485   -1.8394 H   0  0  0  0  0  0  0  0  0  0  0  0
   -5.2045   -2.2642   -1.4450 H   0  0  0  0  0  0  0  0  0  0  0  0
   -5.2531   -3.8898   -0.7260 H   0  0  0  0  0  0  0  0  0  0  0  0
    0.3838   -3.1178   -0.1548 H   0  0  0  0  0  0  0  0  0  0  0  0
    4.5609    0.0331    0.2180 H   0  0  0  0  0  0  0  0  0  0  0  0
    4.5419   -1.5699    1.9967 H   0  0  0  0  0  0  0  0  0  0  0  0
    3.0340   -0.6561    2.0152 H   0  0  0  0  0  0  0  0  0  0  0  0
    3.0591   -2.3231    1.4233 H   0  0  0  0  0  0  0  0  0  0  0  0
    5.1390   -1.3419   -1.6934 H   0  0  0  0  0  0  0  0  0  0  0  0
    5.7149   -2.0657   -0.2020 H   0  0  0  0  0  0  0  0  0  0  0  0
    3.8169   -3.7063   -0.2646 H   0  0  0  0  0  0  0  0  0  0  0  0
    4.8099   -3.7667   -1.7227 H   0  0  0  0  0  0  0  0  0  0  0  0
    3.2403   -2.9598   -1.7716 H   0  0  0  0  0  0  0  0  0  0  0  0
    2.2522    1.8698   -1.3400 H   0  0  0  0  0  0  0  0  0  0  0  0
  1  2  1  0
  2  3  1  0
  3  4  1  0
  4  5  2  0
  5  6  1  0
  6  7  2  0
  6  8  1  0
  8  9  1  0
  9 10  1  0
 10 11  1  0
 11 12  1  0
 12 13  2  3
 13 14  1  0
 13 15  1  0
 10 16  2  0
 16 17  1  0
 16 18  1  0
 18 19  1  0
 19 20  2  0
 19 21  1  0
 21 22  1  0
 21 23  1  0
 23 24  1  0
 18 25  2  0
 25 26  1  0
 25 27  1  0
 27  4  1  0
 27  9  2  0
  1 28  1  0
  1 29  1  0
  1 30  1  0
  2 31  1  0
  2 32  1  0
  3 33  1  0
  3 34  1  0
  5 35  1  0
 11 36  1  0
 11 37  1  0
 12 38  1  0
 14 39  1  0
 14 40  1  0
 14 41  1  0
 15 42  1  0
 15 43  1  0
 15 44  1  0
 17 45  1  0
 21 46  1  1
 22 47  1  0
 22 48  1  0
 22 49  1  0
 23 50  1  0
 23 51  1  0
 24 52  1  0
 24 53  1  0
 24 54  1  0
 26 55  1  0
M  END
>  <Name>  (484) 
Mammea B/ Ab (Mab 2)

>  <PubChem ID>  (484) 
71436830

>  <CDB ID>  (484) 
CDB0484

>  <Smiles>  (484) 
CCCC1=CC(=O)OC2=C(CC=C(C)C)C(O)=C(C(=O)[C@@H](C)CC)C(O)=C12

>  <Chemical class>  (484) 
5,7-Dioxygenated Coumarins

>  <Natural source>  (484) 
Mammea americana

>  <Molecular Formula>  (484) 
C22H28O5

>  <InChI-Key>  (484) 
PQMOXTJVIYEOQL-ZDUSSCGKSA-N

>  <Total Molweight>  (484) 
372.459

>  <cLogP>  (484) 
4.8138

>  <cLogS>  (484) 
-4.37

>  <H-Acceptors>  (484) 
5

>  <H-Donors>  (484) 
2

>  <Rotatable Bonds>  (484) 
7

>  <Polar Surface Area>  (484) 
83.83

$$$$
CDB0485
     RDKit          3D

 52 53  0  0  0  0  0  0  0  0999 V2000
   -0.5508    5.7161    1.0941 C   0  0  0  0  0  0  0  0  0  0  0  0
    0.7878    5.2091    0.5735 C   0  0  0  0  0  0  0  0  0  0  0  0
    0.9353    3.6789    0.6600 C   0  0  0  0  0  0  0  0  0  0  0  0
    0.1218    2.7958   -0.2744 C   0  0  0  0  0  0  0  0  0  0  0  0
   -0.5599    3.3030   -1.3147 C   0  0  0  0  0  0  0  0  0  0  0  0
   -1.4056    2.5145   -2.2109 C   0  0  0  0  0  0  0  0  0  0  0  0
   -1.9829    3.0277   -3.1605 O   0  0  0  0  0  0  0  0  0  0  0  0
   -1.5351    1.1797   -1.8993 O   0  0  0  0  0  0  0  0  0  0  0  0
   -0.8280    0.5702   -0.8399 C   0  0  0  0  0  0  0  0  0  0  0  0
    0.0588    1.3197   -0.0462 C   0  0  0  0  0  0  0  0  0  0  0  0
    0.8306    0.5983    0.8986 C   0  0  0  0  0  0  0  0  0  0  0  0
    0.6962   -0.7991    1.0777 C   0  0  0  0  0  0  0  0  0  0  0  0
   -0.2172   -1.4871    0.2632 C   0  0  0  0  0  0  0  0  0  0  0  0
   -1.0037   -0.8113   -0.6785 C   0  0  0  0  0  0  0  0  0  0  0  0
   -1.9821   -1.6026   -1.4738 C   0  0  0  0  0  0  0  0  0  0  0  0
   -1.6473   -2.7406   -1.8131 O   0  0  0  0  0  0  0  0  0  0  0  0
   -3.3809   -1.0572   -1.7360 C   0  0  0  0  0  0  0  0  0  0  0  0
   -3.6186   -0.9435   -3.2381 C   0  0  0  0  0  0  0  0  0  0  0  0
   -4.4070   -1.9904   -1.0942 C   0  0  0  0  0  0  0  0  0  0  0  0
   -0.3144   -2.8489    0.4231 O   0  0  0  0  0  0  0  0  0  0  0  0
    1.5146   -1.5765    2.0935 C   0  0  0  0  0  0  0  0  0  0  0  0
    2.8471   -2.0166    1.5413 C   0  0  0  0  0  0  0  0  0  0  0  0
    3.2990   -3.2745    1.3639 C   0  0  0  0  0  0  0  0  0  0  0  0
    2.5346   -4.5310    1.6808 C   0  0  0  0  0  0  0  0  0  0  0  0
    4.6705   -3.5227    0.7894 C   0  0  0  0  0  0  0  0  0  0  0  0
    1.7563    1.2840    1.6442 O   0  0  0  0  0  0  0  0  0  0  0  0
   -0.7025    5.4158    2.1359 H   0  0  0  0  0  0  0  0  0  0  0  0
   -1.3913    5.3390    0.5057 H   0  0  0  0  0  0  0  0  0  0  0  0
   -0.5783    6.8098    1.0530 H   0  0  0  0  0  0  0  0  0  0  0  0
    0.9583    5.5646   -0.4485 H   0  0  0  0  0  0  0  0  0  0  0  0
    1.5780    5.6603    1.1870 H   0  0  0  0  0  0  0  0  0  0  0  0
    0.6977    3.4116    1.6972 H   0  0  0  0  0  0  0  0  0  0  0  0
    1.9964    3.4570    0.4874 H   0  0  0  0  0  0  0  0  0  0  0  0
   -0.5484    4.3563   -1.5664 H   0  0  0  0  0  0  0  0  0  0  0  0
   -3.5043   -0.0753   -1.2699 H   0  0  0  0  0  0  0  0  0  0  0  0
   -4.6063   -0.5180   -3.4437 H   0  0  0  0  0  0  0  0  0  0  0  0
   -3.5632   -1.9226   -3.7270 H   0  0  0  0  0  0  0  0  0  0  0  0
   -2.8680   -0.3018   -3.7106 H   0  0  0  0  0  0  0  0  0  0  0  0
   -4.3658   -2.9954   -1.5288 H   0  0  0  0  0  0  0  0  0  0  0  0
   -5.4223   -1.6036   -1.2300 H   0  0  0  0  0  0  0  0  0  0  0  0
   -4.2218   -2.0890   -0.0189 H   0  0  0  0  0  0  0  0  0  0  0  0
   -0.7297   -3.2268   -0.3858 H   0  0  0  0  0  0  0  0  0  0  0  0
    0.9248   -2.4096    2.4864 H   0  0  0  0  0  0  0  0  0  0  0  0
    1.6896   -0.9550    2.9806 H   0  0  0  0  0  0  0  0  0  0  0  0
    3.5114   -1.2024    1.2548 H   0  0  0  0  0  0  0  0  0  0  0  0
    2.3997   -5.1265    0.7716 H   0  0  0  0  0  0  0  0  0  0  0  0
    1.5436   -4.3507    2.1003 H   0  0  0  0  0  0  0  0  0  0  0  0
    3.0899   -5.1338    2.4073 H   0  0  0  0  0  0  0  0  0  0  0  0
    5.2022   -2.5925    0.5627 H   0  0  0  0  0  0  0  0  0  0  0  0
    4.5939   -4.0961   -0.1403 H   0  0  0  0  0  0  0  0  0  0  0  0
    5.2816   -4.0895    1.4994 H   0  0  0  0  0  0  0  0  0  0  0  0
    2.4157    0.6794    2.0171 H   0  0  0  0  0  0  0  0  0  0  0  0
  1  2  1  0
  2  3  1  0
  3  4  1  0
  4  5  2  0
  5  6  1  0
  6  7  2  0
  6  8  1  0
  8  9  1  0
  9 10  1  0
 10 11  2  0
 11 12  1  0
 12 13  2  0
 13 14  1  0
 14 15  1  0
 15 16  2  0
 15 17  1  0
 17 18  1  0
 17 19  1  0
 13 20  1  0
 12 21  1  0
 21 22  1  0
 22 23  2  3
 23 24  1  0
 23 25  1  0
 11 26  1  0
 10  4  1  0
 14  9  2  0
  1 27  1  0
  1 28  1  0
  1 29  1  0
  2 30  1  0
  2 31  1  0
  3 32  1  0
  3 33  1  0
  5 34  1  0
 17 35  1  0
 18 36  1  0
 18 37  1  0
 18 38  1  0
 19 39  1  0
 19 40  1  0
 19 41  1  0
 20 42  1  0
 21 43  1  0
 21 44  1  0
 22 45  1  0
 24 46  1  0
 24 47  1  0
 24 48  1  0
 25 49  1  0
 25 50  1  0
 25 51  1  0
 26 52  1  0
M  END
>  <Name>  (485) 
Mammea B/Bd

>  <PubChem ID>  (485) 
102383790

>  <CDB ID>  (485) 
CDB0485

>  <Smiles>  (485) 
CCCC1=CC(=O)OC2=C1C(=C(C(=C2C(=O)C(C)C)O)CC=C(C)C)O

>  <Chemical class>  (485) 
5,7-Dioxygenated Coumarins

>  <Natural source>  (485) 
Mammea americana, Mammea africana

>  <Molecular Formula>  (485) 
C21H26O5

>  <InChI-Key>  (485) 
FLFMHVIZGHIVEJ-UHFFFAOYSA-N

>  <Total Molweight>  (485) 
358.432

>  <cLogP>  (485) 
4.3594

>  <cLogS>  (485) 
-4.1

>  <H-Acceptors>  (485) 
5

>  <H-Donors>  (485) 
2

>  <Rotatable Bonds>  (485) 
6

>  <Polar Surface Area>  (485) 
83.83

$$$$
CDB0486
     RDKit          3D

 52 53  0  0  0  0  0  0  0  0999 V2000
   -4.5665    4.0202   -2.5764 C   0  0  0  0  0  0  0  0  0  0  0  0
   -3.3711    4.1848   -1.6483 C   0  0  0  0  0  0  0  0  0  0  0  0
   -2.5854    2.8703   -1.5102 C   0  0  0  0  0  0  0  0  0  0  0  0
   -1.3715    2.8684   -0.5954 C   0  0  0  0  0  0  0  0  0  0  0  0
   -0.9507    3.9797    0.0316 C   0  0  0  0  0  0  0  0  0  0  0  0
    0.1979    4.0366    0.9407 C   0  0  0  0  0  0  0  0  0  0  0  0
    0.5588    5.0984    1.4329 O   0  0  0  0  0  0  0  0  0  0  0  0
    0.8335    2.8417    1.1909 O   0  0  0  0  0  0  0  0  0  0  0  0
    0.4359    1.6375    0.5702 C   0  0  0  0  0  0  0  0  0  0  0  0
   -0.6209    1.6033   -0.3509 C   0  0  0  0  0  0  0  0  0  0  0  0
   -0.8742    0.3554   -0.9708 C   0  0  0  0  0  0  0  0  0  0  0  0
   -0.1439   -0.8189   -0.6632 C   0  0  0  0  0  0  0  0  0  0  0  0
    0.8714   -0.7275    0.3001 C   0  0  0  0  0  0  0  0  0  0  0  0
    1.1734    0.4942    0.8987 C   0  0  0  0  0  0  0  0  0  0  0  0
    2.2312    0.5691    1.9243 C   0  0  0  0  0  0  0  0  0  0  0  0
    1.9150    0.7738    3.0926 O   0  0  0  0  0  0  0  0  0  0  0  0
    3.6639    0.4298    1.4522 C   0  0  0  0  0  0  0  0  0  0  0  0
    4.4739   -0.4415    2.4070 C   0  0  0  0  0  0  0  0  0  0  0  0
    5.9035   -0.6188    1.9228 C   0  0  0  0  0  0  0  0  0  0  0  0
    1.5851   -1.8337    0.6761 O   0  0  0  0  0  0  0  0  0  0  0  0
   -0.4664   -2.1543   -1.3091 C   0  0  0  0  0  0  0  0  0  0  0  0
   -1.3545   -3.0024   -0.4386 C   0  0  0  0  0  0  0  0  0  0  0  0
   -1.1399   -4.2560    0.0089 C   0  0  0  0  0  0  0  0  0  0  0  0
    0.0648   -5.1046   -0.2942 C   0  0  0  0  0  0  0  0  0  0  0  0
   -2.1617   -4.9364    0.8857 C   0  0  0  0  0  0  0  0  0  0  0  0
   -1.8723    0.2615   -1.9064 O   0  0  0  0  0  0  0  0  0  0  0  0
   -5.2589    3.2633   -2.1943 H   0  0  0  0  0  0  0  0  0  0  0  0
   -5.1112    4.9656   -2.6633 H   0  0  0  0  0  0  0  0  0  0  0  0
   -4.2464    3.7191   -3.5789 H   0  0  0  0  0  0  0  0  0  0  0  0
   -2.7231    4.9728   -2.0498 H   0  0  0  0  0  0  0  0  0  0  0  0
   -3.7310    4.5156   -0.6668 H   0  0  0  0  0  0  0  0  0  0  0  0
   -2.2593    2.5837   -2.5179 H   0  0  0  0  0  0  0  0  0  0  0  0
   -3.2923    2.1132   -1.1475 H   0  0  0  0  0  0  0  0  0  0  0  0
   -1.4377    4.9402   -0.0874 H   0  0  0  0  0  0  0  0  0  0  0  0
    3.6905    0.0027    0.4437 H   0  0  0  0  0  0  0  0  0  0  0  0
    4.0918    1.4372    1.3930 H   0  0  0  0  0  0  0  0  0  0  0  0
    3.9995   -1.4249    2.5084 H   0  0  0  0  0  0  0  0  0  0  0  0
    4.4855    0.0069    3.4076 H   0  0  0  0  0  0  0  0  0  0  0  0
    5.9281   -1.1031    0.9414 H   0  0  0  0  0  0  0  0  0  0  0  0
    6.4665   -1.2432    2.6235 H   0  0  0  0  0  0  0  0  0  0  0  0
    6.4129    0.3468    1.8429 H   0  0  0  0  0  0  0  0  0  0  0  0
    0.9654   -2.5826    0.7518 H   0  0  0  0  0  0  0  0  0  0  0  0
    0.4749   -2.6501   -1.5651 H   0  0  0  0  0  0  0  0  0  0  0  0
   -0.9682   -2.0158   -2.2724 H   0  0  0  0  0  0  0  0  0  0  0  0
   -2.2888   -2.5114   -0.1576 H   0  0  0  0  0  0  0  0  0  0  0  0
    0.5927   -5.3507    0.6332 H   0  0  0  0  0  0  0  0  0  0  0  0
    0.7819   -4.6230   -0.9615 H   0  0  0  0  0  0  0  0  0  0  0  0
   -0.2452   -6.0397   -0.7728 H   0  0  0  0  0  0  0  0  0  0  0  0
   -3.0270   -4.2973    1.0908 H   0  0  0  0  0  0  0  0  0  0  0  0
   -2.5288   -5.8480    0.4028 H   0  0  0  0  0  0  0  0  0  0  0  0
   -1.7140   -5.2072    1.8476 H   0  0  0  0  0  0  0  0  0  0  0  0
   -1.4871   -0.1006   -2.7226 H   0  0  0  0  0  0  0  0  0  0  0  0
  1  2  1  0
  2  3  1  0
  3  4  1  0
  4  5  2  0
  5  6  1  0
  6  7  2  0
  6  8  1  0
  8  9  1  0
  9 10  1  0
 10 11  2  0
 11 12  1  0
 12 13  2  0
 13 14  1  0
 14 15  1  0
 15 16  2  0
 15 17  1  0
 17 18  1  0
 18 19  1  0
 13 20  1  0
 12 21  1  0
 21 22  1  0
 22 23  2  3
 23 24  1  0
 23 25  1  0
 11 26  1  0
 10  4  1  0
 14  9  2  0
  1 27  1  0
  1 28  1  0
  1 29  1  0
  2 30  1  0
  2 31  1  0
  3 32  1  0
  3 33  1  0
  5 34  1  0
 17 35  1  0
 17 36  1  0
 18 37  1  0
 18 38  1  0
 19 39  1  0
 19 40  1  0
 19 41  1  0
 20 42  1  0
 21 43  1  0
 21 44  1  0
 22 45  1  0
 24 46  1  0
 24 47  1  0
 24 48  1  0
 25 49  1  0
 25 50  1  0
 25 51  1  0
 26 52  1  0
M  END
>  <Name>  (486) 
Mammeab/Bc (Normammein)

>  <PubChem ID>  (486) 
71438014

>  <CDB ID>  (486) 
CDB0486

>  <Smiles>  (486) 
CCCC1=CC(=O)OC2=C1C(=C(C(=C2C(=O)CCC)O)CC=C(C)C)O

>  <Chemical class>  (486) 
5,7-Dioxygenated Coumarins

>  <Natural source>  (486) 
Mammea americana

>  <Molecular Formula>  (486) 
C21H26O5

>  <InChI-Key>  (486) 
KXLBWJRELYDBOS-UHFFFAOYSA-N

>  <Total Molweight>  (486) 
358.432

>  <cLogP>  (486) 
4.5955

>  <cLogS>  (486) 
-4.21

>  <H-Acceptors>  (486) 
5

>  <H-Donors>  (486) 
2

>  <Rotatable Bonds>  (486) 
7

>  <Polar Surface Area>  (486) 
83.83

$$$$
CDB0487
     RDKit          3D

 55 56  0  0  0  0  0  0  0  0999 V2000
   -2.0610    4.5258    1.3354 C   0  0  0  0  0  0  0  0  0  0  0  0
   -2.5850    3.5116    0.3275 C   0  0  0  0  0  0  0  0  0  0  0  0
   -1.7340    3.4268   -0.9480 C   0  0  0  0  0  0  0  0  0  0  0  0
   -0.3316    2.8993   -0.7330 C   0  0  0  0  0  0  0  0  0  0  0  0
    0.6872    3.7752   -0.7371 C   0  0  0  0  0  0  0  0  0  0  0  0
    2.0886    3.4086   -0.5227 C   0  0  0  0  0  0  0  0  0  0  0  0
    2.9769    4.2495   -0.5791 O   0  0  0  0  0  0  0  0  0  0  0  0
    2.3305    2.0792   -0.2557 O   0  0  0  0  0  0  0  0  0  0  0  0
    1.3029    1.1083   -0.2702 C   0  0  0  0  0  0  0  0  0  0  0  0
    1.6929   -0.2162   -0.0355 C   0  0  0  0  0  0  0  0  0  0  0  0
    3.0968   -0.5144    0.3155 C   0  0  0  0  0  0  0  0  0  0  0  0
    3.5198   -0.1405    1.4062 O   0  0  0  0  0  0  0  0  0  0  0  0
    3.9466   -1.2310   -0.7305 C   0  0  1  0  0  0  0  0  0  0  0  0
    4.5981   -0.1797   -1.6291 C   0  0  0  0  0  0  0  0  0  0  0  0
    5.0238   -2.1103   -0.0754 C   0  0  0  0  0  0  0  0  0  0  0  0
    4.4390   -3.3017    0.6715 C   0  0  0  0  0  0  0  0  0  0  0  0
    0.7507   -1.2430   -0.0867 C   0  0  0  0  0  0  0  0  0  0  0  0
    1.1711   -2.5199    0.1678 O   0  0  0  0  0  0  0  0  0  0  0  0
   -0.5860   -0.9617   -0.4027 C   0  0  0  0  0  0  0  0  0  0  0  0
   -1.6033   -2.0759   -0.5682 C   0  0  0  0  0  0  0  0  0  0  0  0
   -2.4333   -2.2714    0.6736 C   0  0  0  0  0  0  0  0  0  0  0  0
   -3.7772   -2.2921    0.7805 C   0  0  0  0  0  0  0  0  0  0  0  0
   -4.7525   -2.1476   -0.3565 C   0  0  0  0  0  0  0  0  0  0  0  0
   -4.4332   -2.4866    2.1253 C   0  0  0  0  0  0  0  0  0  0  0  0
   -0.9572    0.3945   -0.5960 C   0  0  0  0  0  0  0  0  0  0  0  0
   -2.2716    0.6717   -0.8745 O   0  0  0  0  0  0  0  0  0  0  0  0
   -0.0280    1.4583   -0.5398 C   0  0  0  0  0  0  0  0  0  0  0  0
   -1.9642    5.5174    0.8820 H   0  0  0  0  0  0  0  0  0  0  0  0
   -2.7527    4.6067    2.1801 H   0  0  0  0  0  0  0  0  0  0  0  0
   -1.0857    4.2288    1.7326 H   0  0  0  0  0  0  0  0  0  0  0  0
   -2.6615    2.5360    0.8184 H   0  0  0  0  0  0  0  0  0  0  0  0
   -3.6038    3.8010    0.0428 H   0  0  0  0  0  0  0  0  0  0  0  0
   -1.6871    4.4355   -1.3833 H   0  0  0  0  0  0  0  0  0  0  0  0
   -2.2501    2.8414   -1.7163 H   0  0  0  0  0  0  0  0  0  0  0  0
    0.5285    4.8378   -0.8876 H   0  0  0  0  0  0  0  0  0  0  0  0
    3.3047   -1.8672   -1.3509 H   0  0  0  0  0  0  0  0  0  0  0  0
    5.2248   -0.6518   -2.3929 H   0  0  0  0  0  0  0  0  0  0  0  0
    3.8410    0.4204   -2.1449 H   0  0  0  0  0  0  0  0  0  0  0  0
    5.2242    0.5073   -1.0489 H   0  0  0  0  0  0  0  0  0  0  0  0
    5.6353   -1.5196    0.6175 H   0  0  0  0  0  0  0  0  0  0  0  0
    5.7016   -2.4920   -0.8489 H   0  0  0  0  0  0  0  0  0  0  0  0
    5.2441   -3.9206    1.0803 H   0  0  0  0  0  0  0  0  0  0  0  0
    3.8393   -3.9272    0.0028 H   0  0  0  0  0  0  0  0  0  0  0  0
    3.8071   -2.9825    1.5056 H   0  0  0  0  0  0  0  0  0  0  0  0
    0.4625   -3.0155    0.6123 H   0  0  0  0  0  0  0  0  0  0  0  0
   -2.2072   -1.8635   -1.4555 H   0  0  0  0  0  0  0  0  0  0  0  0
   -1.1010   -3.0214   -0.8045 H   0  0  0  0  0  0  0  0  0  0  0  0
   -1.8519   -2.4090    1.5866 H   0  0  0  0  0  0  0  0  0  0  0  0
   -4.2752   -2.0708   -1.3351 H   0  0  0  0  0  0  0  0  0  0  0  0
   -5.3624   -1.2493   -0.2149 H   0  0  0  0  0  0  0  0  0  0  0  0
   -5.4199   -3.0154   -0.3913 H   0  0  0  0  0  0  0  0  0  0  0  0
   -3.7026   -2.5872    2.9349 H   0  0  0  0  0  0  0  0  0  0  0  0
   -5.0493   -3.3917    2.1194 H   0  0  0  0  0  0  0  0  0  0  0  0
   -5.0734   -1.6301    2.3609 H   0  0  0  0  0  0  0  0  0  0  0  0
   -2.8362    0.0659   -0.3637 H   0  0  0  0  0  0  0  0  0  0  0  0
  1  2  1  0
  2  3  1  0
  3  4  1  0
  4  5  2  0
  5  6  1  0
  6  7  2  0
  6  8  1  0
  8  9  1  0
  9 10  2  0
 10 11  1  0
 11 12  2  0
 11 13  1  0
 13 14  1  0
 13 15  1  0
 15 16  1  0
 10 17  1  0
 17 18  1  0
 17 19  2  0
 19 20  1  0
 20 21  1  0
 21 22  2  3
 22 23  1  0
 22 24  1  0
 19 25  1  0
 25 26  1  0
 25 27  2  0
 27  4  1  0
 27  9  1  0
  1 28  1  0
  1 29  1  0
  1 30  1  0
  2 31  1  0
  2 32  1  0
  3 33  1  0
  3 34  1  0
  5 35  1  0
 13 36  1  6
 14 37  1  0
 14 38  1  0
 14 39  1  0
 15 40  1  0
 15 41  1  0
 16 42  1  0
 16 43  1  0
 16 44  1  0
 18 45  1  0
 20 46  1  0
 20 47  1  0
 21 48  1  0
 23 49  1  0
 23 50  1  0
 23 51  1  0
 24 52  1  0
 24 53  1  0
 24 54  1  0
 26 55  1  0
M  END
>  <Name>  (487) 
Mammea B/Bb

>  <PubChem ID>  (487) 
53320112

>  <CDB ID>  (487) 
CDB0487

>  <Smiles>  (487) 
CCCC1=CC(=O)OC2=C(C(=O)[C@@H](C)CC)C(O)=C(CC=C(C)C)C(O)=C12

>  <Chemical class>  (487) 
5,7-Dioxygenated Coumarins

>  <Natural source>  (487) 
Mammea americana

>  <Molecular Formula>  (487) 
C22H28O5

>  <InChI-Key>  (487) 
FSOGIJPGPZWNGO-ZDUSSCGKSA-N

>  <Total Molweight>  (487) 
372.459

>  <cLogP>  (487) 
4.8138

>  <cLogS>  (487) 
-4.37

>  <H-Acceptors>  (487) 
5

>  <H-Donors>  (487) 
2

>  <Rotatable Bonds>  (487) 
7

>  <Polar Surface Area>  (487) 
83.83

$$$$
CDB0488
     RDKit          3D

 55 56  0  0  0  0  0  0  0  0999 V2000
   -2.0610    4.5258    1.3354 C   0  0  0  0  0  0  0  0  0  0  0  0
   -2.5850    3.5116    0.3275 C   0  0  0  0  0  0  0  0  0  0  0  0
   -1.7340    3.4268   -0.9480 C   0  0  0  0  0  0  0  0  0  0  0  0
   -0.3316    2.8993   -0.7330 C   0  0  0  0  0  0  0  0  0  0  0  0
    0.6872    3.7752   -0.7371 C   0  0  0  0  0  0  0  0  0  0  0  0
    2.0886    3.4086   -0.5227 C   0  0  0  0  0  0  0  0  0  0  0  0
    2.9769    4.2495   -0.5791 O   0  0  0  0  0  0  0  0  0  0  0  0
    2.3305    2.0792   -0.2557 O   0  0  0  0  0  0  0  0  0  0  0  0
    1.3029    1.1083   -0.2702 C   0  0  0  0  0  0  0  0  0  0  0  0
    1.6929   -0.2162   -0.0355 C   0  0  0  0  0  0  0  0  0  0  0  0
    3.0968   -0.5144    0.3155 C   0  0  0  0  0  0  0  0  0  0  0  0
    3.5198   -0.1405    1.4062 O   0  0  0  0  0  0  0  0  0  0  0  0
    3.9466   -1.2310   -0.7305 C   0  0  1  0  0  0  0  0  0  0  0  0
    4.5981   -0.1797   -1.6291 C   0  0  0  0  0  0  0  0  0  0  0  0
    5.0238   -2.1103   -0.0754 C   0  0  0  0  0  0  0  0  0  0  0  0
    4.4390   -3.3017    0.6715 C   0  0  0  0  0  0  0  0  0  0  0  0
    0.7507   -1.2430   -0.0867 C   0  0  0  0  0  0  0  0  0  0  0  0
    1.1711   -2.5199    0.1678 O   0  0  0  0  0  0  0  0  0  0  0  0
   -0.5860   -0.9617   -0.4027 C   0  0  0  0  0  0  0  0  0  0  0  0
   -1.6033   -2.0759   -0.5682 C   0  0  0  0  0  0  0  0  0  0  0  0
   -2.4333   -2.2714    0.6736 C   0  0  0  0  0  0  0  0  0  0  0  0
   -3.7772   -2.2921    0.7805 C   0  0  0  0  0  0  0  0  0  0  0  0
   -4.7525   -2.1476   -0.3565 C   0  0  0  0  0  0  0  0  0  0  0  0
   -4.4332   -2.4866    2.1253 C   0  0  0  0  0  0  0  0  0  0  0  0
   -0.9572    0.3945   -0.5960 C   0  0  0  0  0  0  0  0  0  0  0  0
   -2.2716    0.6717   -0.8745 O   0  0  0  0  0  0  0  0  0  0  0  0
   -0.0280    1.4583   -0.5398 C   0  0  0  0  0  0  0  0  0  0  0  0
   -1.9642    5.5174    0.8820 H   0  0  0  0  0  0  0  0  0  0  0  0
   -2.7527    4.6067    2.1801 H   0  0  0  0  0  0  0  0  0  0  0  0
   -1.0857    4.2288    1.7326 H   0  0  0  0  0  0  0  0  0  0  0  0
   -2.6615    2.5360    0.8184 H   0  0  0  0  0  0  0  0  0  0  0  0
   -3.6038    3.8010    0.0428 H   0  0  0  0  0  0  0  0  0  0  0  0
   -1.6871    4.4355   -1.3833 H   0  0  0  0  0  0  0  0  0  0  0  0
   -2.2501    2.8414   -1.7163 H   0  0  0  0  0  0  0  0  0  0  0  0
    0.5285    4.8378   -0.8876 H   0  0  0  0  0  0  0  0  0  0  0  0
    3.3047   -1.8672   -1.3509 H   0  0  0  0  0  0  0  0  0  0  0  0
    5.2248   -0.6518   -2.3929 H   0  0  0  0  0  0  0  0  0  0  0  0
    3.8410    0.4204   -2.1449 H   0  0  0  0  0  0  0  0  0  0  0  0
    5.2242    0.5073   -1.0489 H   0  0  0  0  0  0  0  0  0  0  0  0
    5.6353   -1.5196    0.6175 H   0  0  0  0  0  0  0  0  0  0  0  0
    5.7016   -2.4920   -0.8489 H   0  0  0  0  0  0  0  0  0  0  0  0
    5.2441   -3.9206    1.0803 H   0  0  0  0  0  0  0  0  0  0  0  0
    3.8393   -3.9272    0.0028 H   0  0  0  0  0  0  0  0  0  0  0  0
    3.8071   -2.9825    1.5056 H   0  0  0  0  0  0  0  0  0  0  0  0
    0.4625   -3.0155    0.6123 H   0  0  0  0  0  0  0  0  0  0  0  0
   -2.2072   -1.8635   -1.4555 H   0  0  0  0  0  0  0  0  0  0  0  0
   -1.1010   -3.0214   -0.8045 H   0  0  0  0  0  0  0  0  0  0  0  0
   -1.8519   -2.4090    1.5866 H   0  0  0  0  0  0  0  0  0  0  0  0
   -4.2752   -2.0708   -1.3351 H   0  0  0  0  0  0  0  0  0  0  0  0
   -5.3624   -1.2493   -0.2149 H   0  0  0  0  0  0  0  0  0  0  0  0
   -5.4199   -3.0154   -0.3913 H   0  0  0  0  0  0  0  0  0  0  0  0
   -3.7026   -2.5872    2.9349 H   0  0  0  0  0  0  0  0  0  0  0  0
   -5.0493   -3.3917    2.1194 H   0  0  0  0  0  0  0  0  0  0  0  0
   -5.0734   -1.6301    2.3609 H   0  0  0  0  0  0  0  0  0  0  0  0
   -2.8362    0.0659   -0.3637 H   0  0  0  0  0  0  0  0  0  0  0  0
  1  2  1  0
  2  3  1  0
  3  4  1  0
  4  5  2  0
  5  6  1  0
  6  7  2  0
  6  8  1  0
  8  9  1  0
  9 10  2  0
 10 11  1  0
 11 12  2  0
 11 13  1  0
 13 14  1  0
 13 15  1  0
 15 16  1  0
 10 17  1  0
 17 18  1  0
 17 19  2  0
 19 20  1  0
 20 21  1  0
 21 22  2  3
 22 23  1  0
 22 24  1  0
 19 25  1  0
 25 26  1  0
 25 27  2  0
 27  4  1  0
 27  9  1  0
  1 28  1  0
  1 29  1  0
  1 30  1  0
  2 31  1  0
  2 32  1  0
  3 33  1  0
  3 34  1  0
  5 35  1  0
 13 36  1  6
 14 37  1  0
 14 38  1  0
 14 39  1  0
 15 40  1  0
 15 41  1  0
 16 42  1  0
 16 43  1  0
 16 44  1  0
 18 45  1  0
 20 46  1  0
 20 47  1  0
 21 48  1  0
 23 49  1  0
 23 50  1  0
 23 51  1  0
 24 52  1  0
 24 53  1  0
 24 54  1  0
 26 55  1  0
M  END
>  <Name>  (488) 
(Neomammein)

>  <PubChem ID>  (488) 
10339247

>  <CDB ID>  (488) 
CDB0488

>  <Smiles>  (488) 
CCCC1=CC(=O)OC2=C(C(=O)[C@@H](C)CC)C(O)=C(CC=C(C)C)C(O)=C12

>  <Chemical class>  (488) 
5,7-Dioxygenated Coumarins

>  <Natural source>  (488) 
Mammea americana

>  <Molecular Formula>  (488) 
C22H28O5

>  <InChI-Key>  (488) 
FSOGIJPGPZWNGO-ZDUSSCGKSA-N

>  <Total Molweight>  (488) 
372.459

>  <cLogP>  (488) 
4.8138

>  <cLogS>  (488) 
-4.37

>  <H-Acceptors>  (488) 
5

>  <H-Donors>  (488) 
2

>  <Rotatable Bonds>  (488) 
7

>  <Polar Surface Area>  (488) 
83.83

$$$$
CDB0489
     RDKit          3D

 55 56  0  0  0  0  0  0  0  0999 V2000
   -1.4684    4.3662   -3.1694 C   0  0  0  0  0  0  0  0  0  0  0  0
   -1.7674    4.5856   -1.6918 C   0  0  0  0  0  0  0  0  0  0  0  0
   -1.6297    3.3063   -0.8463 C   0  0  0  0  0  0  0  0  0  0  0  0
   -0.2449    2.7678   -0.5218 C   0  0  0  0  0  0  0  0  0  0  0  0
    0.8756    3.4242   -0.8659 C   0  0  0  0  0  0  0  0  0  0  0  0
    2.2355    2.9461   -0.6024 C   0  0  0  0  0  0  0  0  0  0  0  0
    3.2107    3.5821   -0.9826 O   0  0  0  0  0  0  0  0  0  0  0  0
    2.3362    1.7458    0.0614 O   0  0  0  0  0  0  0  0  0  0  0  0
    1.2006    1.0287    0.4987 C   0  0  0  0  0  0  0  0  0  0  0  0
   -0.0969    1.4840    0.2261 C   0  0  0  0  0  0  0  0  0  0  0  0
   -1.1545    0.6694    0.6958 C   0  0  0  0  0  0  0  0  0  0  0  0
   -0.9418   -0.5308    1.4258 C   0  0  0  0  0  0  0  0  0  0  0  0
    0.3795   -0.9587    1.6254 C   0  0  0  0  0  0  0  0  0  0  0  0
    1.4456   -0.1720    1.1807 C   0  0  0  0  0  0  0  0  0  0  0  0
    2.8416   -0.5850    1.4480 C   0  0  0  0  0  0  0  0  0  0  0  0
    3.5497    0.1227    2.1587 O   0  0  0  0  0  0  0  0  0  0  0  0
    3.3143   -1.8873    0.8274 C   0  0  0  0  0  0  0  0  0  0  0  0
    4.7559   -1.7994    0.3035 C   0  0  0  0  0  0  0  0  0  0  0  0
    4.8580   -0.8659   -0.9047 C   0  0  0  0  0  0  0  0  0  0  0  0
    5.2607   -3.1934   -0.0730 C   0  0  0  0  0  0  0  0  0  0  0  0
    0.6799   -2.1327    2.2622 O   0  0  0  0  0  0  0  0  0  0  0  0
   -2.1227   -1.2980    1.9933 C   0  0  0  0  0  0  0  0  0  0  0  0
   -2.6927   -2.2714    0.9961 C   0  0  0  0  0  0  0  0  0  0  0  0
   -3.9715   -2.3871    0.5842 C   0  0  0  0  0  0  0  0  0  0  0  0
   -5.1314   -1.5611    1.0714 C   0  0  0  0  0  0  0  0  0  0  0  0
   -4.3515   -3.4242   -0.4437 C   0  0  0  0  0  0  0  0  0  0  0  0
   -2.4505    1.0507    0.4494 O   0  0  0  0  0  0  0  0  0  0  0  0
   -1.6165    5.2986   -3.7235 H   0  0  0  0  0  0  0  0  0  0  0  0
   -0.4403    4.0362   -3.3386 H   0  0  0  0  0  0  0  0  0  0  0  0
   -2.1407    3.6137   -3.5943 H   0  0  0  0  0  0  0  0  0  0  0  0
   -2.8046    4.9351   -1.6108 H   0  0  0  0  0  0  0  0  0  0  0  0
   -1.1434    5.3921   -1.2914 H   0  0  0  0  0  0  0  0  0  0  0  0
   -2.1977    2.5293   -1.3724 H   0  0  0  0  0  0  0  0  0  0  0  0
   -2.1360    3.5099    0.1064 H   0  0  0  0  0  0  0  0  0  0  0  0
    0.8635    4.3738   -1.3861 H   0  0  0  0  0  0  0  0  0  0  0  0
    3.2475   -2.6553    1.6072 H   0  0  0  0  0  0  0  0  0  0  0  0
    2.6394   -2.1793    0.0139 H   0  0  0  0  0  0  0  0  0  0  0  0
    5.4080   -1.4064    1.0936 H   0  0  0  0  0  0  0  0  0  0  0  0
    5.8843   -0.8371   -1.2864 H   0  0  0  0  0  0  0  0  0  0  0  0
    4.2042   -1.1959   -1.7192 H   0  0  0  0  0  0  0  0  0  0  0  0
    4.5789    0.1581   -0.6390 H   0  0  0  0  0  0  0  0  0  0  0  0
    6.2959   -3.1499   -0.4278 H   0  0  0  0  0  0  0  0  0  0  0  0
    4.6490   -3.6375   -0.8658 H   0  0  0  0  0  0  0  0  0  0  0  0
    5.2334   -3.8639    0.7925 H   0  0  0  0  0  0  0  0  0  0  0  0
   -0.1086   -2.6800    2.3986 H   0  0  0  0  0  0  0  0  0  0  0  0
   -2.8644   -0.5808    2.3578 H   0  0  0  0  0  0  0  0  0  0  0  0
   -1.8277   -1.8452    2.8958 H   0  0  0  0  0  0  0  0  0  0  0  0
   -1.9599   -2.9566    0.5669 H   0  0  0  0  0  0  0  0  0  0  0  0
   -4.8654   -0.8553    1.8603 H   0  0  0  0  0  0  0  0  0  0  0  0
   -5.9139   -2.2133    1.4738 H   0  0  0  0  0  0  0  0  0  0  0  0
   -5.5555   -0.9853    0.2422 H   0  0  0  0  0  0  0  0  0  0  0  0
   -5.0843   -4.1220   -0.0254 H   0  0  0  0  0  0  0  0  0  0  0  0
   -4.7913   -2.9417   -1.3227 H   0  0  0  0  0  0  0  0  0  0  0  0
   -3.4907   -4.0100   -0.7828 H   0  0  0  0  0  0  0  0  0  0  0  0
   -2.9830    0.2561    0.2707 H   0  0  0  0  0  0  0  0  0  0  0  0
  1  2  1  0
  2  3  1  0
  3  4  1  0
  4  5  2  0
  5  6  1  0
  6  7  2  0
  6  8  1  0
  8  9  1  0
  9 10  1  0
 10 11  2  0
 11 12  1  0
 12 13  2  0
 13 14  1  0
 14 15  1  0
 15 16  2  0
 15 17  1  0
 17 18  1  0
 18 19  1  0
 18 20  1  0
 13 21  1  0
 12 22  1  0
 22 23  1  0
 23 24  2  3
 24 25  1  0
 24 26  1  0
 11 27  1  0
 10  4  1  0
 14  9  2  0
  1 28  1  0
  1 29  1  0
  1 30  1  0
  2 31  1  0
  2 32  1  0
  3 33  1  0
  3 34  1  0
  5 35  1  0
 17 36  1  0
 17 37  1  0
 18 38  1  0
 19 39  1  0
 19 40  1  0
 19 41  1  0
 20 42  1  0
 20 43  1  0
 20 44  1  0
 21 45  1  0
 22 46  1  0
 22 47  1  0
 23 48  1  0
 25 49  1  0
 25 50  1  0
 25 51  1  0
 26 52  1  0
 26 53  1  0
 26 54  1  0
 27 55  1  0
M  END
>  <Name>  (489) 
Mammein (Mammea B/Ba) (Ferruol B)

>  <PubChem ID>  (489) 
5489487

>  <CDB ID>  (489) 
CDB0489

>  <Smiles>  (489) 
CCCC1=CC(=O)OC2=C1C(=C(C(=C2C(=O)CC(C)C)O)CC=C(C)C)O

>  <Chemical class>  (489) 
5,7-Dioxygenated Coumarins

>  <Natural source>  (489) 
Mesua ferrea

>  <Molecular Formula>  (489) 
C22H28O5

>  <InChI-Key>  (489) 
LYJWLIYDNZREPC-UHFFFAOYSA-N

>  <Total Molweight>  (489) 
372.459

>  <cLogP>  (489) 
4.8138

>  <cLogS>  (489) 
-4.37

>  <H-Acceptors>  (489) 
5

>  <H-Donors>  (489) 
2

>  <Rotatable Bonds>  (489) 
7

>  <Polar Surface Area>  (489) 
83.83

$$$$
CDB0490
     RDKit          3D

 55 56  0  0  0  0  0  0  0  0999 V2000
    1.6829    5.8848   -0.7649 C   0  0  0  0  0  0  0  0  0  0  0  0
    0.3567    5.6198   -0.0639 C   0  0  0  0  0  0  0  0  0  0  0  0
   -0.0891    4.1481   -0.1399 C   0  0  0  0  0  0  0  0  0  0  0  0
    0.6370    3.1018    0.6926 C   0  0  0  0  0  0  0  0  0  0  0  0
    1.5591    3.4361    1.6104 C   0  0  0  0  0  0  0  0  0  0  0  0
    2.3186    2.4745    2.4110 C   0  0  0  0  0  0  0  0  0  0  0  0
    3.1386    2.8451    3.2417 O   0  0  0  0  0  0  0  0  0  0  0  0
    2.0685    1.1446    2.1581 O   0  0  0  0  0  0  0  0  0  0  0  0
    1.0773    0.7169    1.2423 C   0  0  0  0  0  0  0  0  0  0  0  0
    0.3268    1.6526    0.5074 C   0  0  0  0  0  0  0  0  0  0  0  0
   -0.6645    1.1216   -0.3446 C   0  0  0  0  0  0  0  0  0  0  0  0
   -0.8758   -0.2740   -0.4630 C   0  0  0  0  0  0  0  0  0  0  0  0
   -0.0529   -1.1613    0.2416 C   0  0  0  0  0  0  0  0  0  0  0  0
    0.9120   -0.6826    1.1379 C   0  0  0  0  0  0  0  0  0  0  0  0
    1.7570   -1.6256    1.9750 C   0  0  0  0  0  0  0  0  0  0  0  0
    2.9338   -2.1645    1.2057 C   0  0  0  0  0  0  0  0  0  0  0  0
    3.2705   -3.4502    0.9785 C   0  0  0  0  0  0  0  0  0  0  0  0
    2.5241   -4.6572    1.4776 C   0  0  0  0  0  0  0  0  0  0  0  0
    4.5047   -3.7831    0.1773 C   0  0  0  0  0  0  0  0  0  0  0  0
   -0.1852   -2.5063    0.0239 O   0  0  0  0  0  0  0  0  0  0  0  0
   -1.9705   -0.7562   -1.3566 C   0  0  0  0  0  0  0  0  0  0  0  0
   -2.2161   -0.0825   -2.3592 O   0  0  0  0  0  0  0  0  0  0  0  0
   -2.7621   -1.9999   -0.9772 C   0  0  0  0  0  0  0  0  0  0  0  0
   -4.2501   -1.9853   -1.3718 C   0  0  0  0  0  0  0  0  0  0  0  0
   -4.4713   -2.1039   -2.8800 C   0  0  0  0  0  0  0  0  0  0  0  0
   -4.9937   -0.7784   -0.7992 C   0  0  0  0  0  0  0  0  0  0  0  0
   -1.4581    1.9848   -1.0661 O   0  0  0  0  0  0  0  0  0  0  0  0
    1.9264    6.9509   -0.7142 H   0  0  0  0  0  0  0  0  0  0  0  0
    2.5083    5.3317   -0.3093 H   0  0  0  0  0  0  0  0  0  0  0  0
    1.6274    5.6036   -1.8215 H   0  0  0  0  0  0  0  0  0  0  0  0
   -0.4094    6.2315   -0.5574 H   0  0  0  0  0  0  0  0  0  0  0  0
    0.3982    5.9663    0.9746 H   0  0  0  0  0  0  0  0  0  0  0  0
   -0.0256    3.8660   -1.1980 H   0  0  0  0  0  0  0  0  0  0  0  0
   -1.1468    4.1287    0.1536 H   0  0  0  0  0  0  0  0  0  0  0  0
    1.8263    4.4631    1.8257 H   0  0  0  0  0  0  0  0  0  0  0  0
    2.1330   -1.1204    2.8723 H   0  0  0  0  0  0  0  0  0  0  0  0
    1.1073   -2.4155    2.3641 H   0  0  0  0  0  0  0  0  0  0  0  0
    3.5888   -1.3863    0.8087 H   0  0  0  0  0  0  0  0  0  0  0  0
    3.1849   -5.2817    2.0882 H   0  0  0  0  0  0  0  0  0  0  0  0
    1.6554   -4.4109    2.0908 H   0  0  0  0  0  0  0  0  0  0  0  0
    2.1700   -5.2550    0.6312 H   0  0  0  0  0  0  0  0  0  0  0  0
    5.2063   -4.3637    0.7852 H   0  0  0  0  0  0  0  0  0  0  0  0
    4.2348   -4.3741   -0.7042 H   0  0  0  0  0  0  0  0  0  0  0  0
    5.0294   -2.8876   -0.1718 H   0  0  0  0  0  0  0  0  0  0  0  0
    0.6711   -2.9419    0.1849 H   0  0  0  0  0  0  0  0  0  0  0  0
   -2.7179   -2.1236    0.1116 H   0  0  0  0  0  0  0  0  0  0  0  0
   -2.2721   -2.8649   -1.4384 H   0  0  0  0  0  0  0  0  0  0  0  0
   -4.6968   -2.8819   -0.9204 H   0  0  0  0  0  0  0  0  0  0  0  0
   -3.9196   -2.9564   -3.2896 H   0  0  0  0  0  0  0  0  0  0  0  0
   -5.5336   -2.2615   -3.0970 H   0  0  0  0  0  0  0  0  0  0  0  0
   -4.1599   -1.2042   -3.4178 H   0  0  0  0  0  0  0  0  0  0  0  0
   -6.0697   -0.8678   -0.9842 H   0  0  0  0  0  0  0  0  0  0  0  0
   -4.8467   -0.7092    0.2837 H   0  0  0  0  0  0  0  0  0  0  0  0
   -4.6577    0.1609   -1.2494 H   0  0  0  0  0  0  0  0  0  0  0  0
   -1.8902    1.4844   -1.7961 H   0  0  0  0  0  0  0  0  0  0  0  0
  1  2  1  0
  2  3  1  0
  3  4  1  0
  4  5  2  0
  5  6  1  0
  6  7  2  0
  6  8  1  0
  8  9  1  0
  9 10  2  0
 10 11  1  0
 11 12  2  0
 12 13  1  0
 13 14  2  0
 14 15  1  0
 15 16  1  0
 16 17  2  3
 17 18  1  0
 17 19  1  0
 13 20  1  0
 12 21  1  0
 21 22  2  0
 21 23  1  0
 23 24  1  0
 24 25  1  0
 24 26  1  0
 11 27  1  0
 10  4  1  0
 14  9  1  0
  1 28  1  0
  1 29  1  0
  1 30  1  0
  2 31  1  0
  2 32  1  0
  3 33  1  0
  3 34  1  0
  5 35  1  0
 15 36  1  0
 15 37  1  0
 16 38  1  0
 18 39  1  0
 18 40  1  0
 18 41  1  0
 19 42  1  0
 19 43  1  0
 19 44  1  0
 20 45  1  0
 23 46  1  0
 23 47  1  0
 24 48  1  0
 25 49  1  0
 25 50  1  0
 25 51  1  0
 26 52  1  0
 26 53  1  0
 26 54  1  0
 27 55  1  0
M  END
>  <Name>  (490) 
Mammeab/Aa (Isomammein)

>  <PubChem ID>  (490) 
5748528

>  <CDB ID>  (490) 
CDB0490

>  <Smiles>  (490) 
CCCC1=CC(=O)OC2=C1C(=C(C(=C2CC=C(C)C)O)C(=O)CC(C)C)O

>  <Chemical class>  (490) 
5,7-Dioxygenated Coumarins

>  <Natural source>  (490) 
Mammea americana

>  <Molecular Formula>  (490) 
C22H28O5

>  <InChI-Key>  (490) 
VXFHCMCZMKQIMR-UHFFFAOYSA-N

>  <Total Molweight>  (490) 
372.459

>  <cLogP>  (490) 
4.8138

>  <cLogS>  (490) 
-4.37

>  <H-Acceptors>  (490) 
5

>  <H-Donors>  (490) 
2

>  <Rotatable Bonds>  (490) 
7

>  <Polar Surface Area>  (490) 
83.83

$$$$
CDB0491
     RDKit          3D

 68 69  0  0  0  0  0  0  0  0999 V2000
    1.7955    5.1131   -2.2325 C   0  0  0  0  0  0  0  0  0  0  0  0
    0.5176    4.6179   -1.5731 C   0  0  0  0  0  0  0  0  0  0  0  0
    0.8211    3.8139   -0.3041 C   0  0  0  0  0  0  0  0  0  0  0  0
   -0.4270    3.2440    0.3320 C   0  0  0  0  0  0  0  0  0  0  0  0
   -0.9708    3.9034    1.3684 C   0  0  0  0  0  0  0  0  0  0  0  0
   -2.1599    3.4545    2.0963 C   0  0  0  0  0  0  0  0  0  0  0  0
   -2.5973    4.0937    3.0447 O   0  0  0  0  0  0  0  0  0  0  0  0
   -2.7299    2.2805    1.6555 O   0  0  0  0  0  0  0  0  0  0  0  0
   -2.1969    1.5414    0.5749 C   0  0  0  0  0  0  0  0  0  0  0  0
   -2.8579    0.3530    0.2428 C   0  0  0  0  0  0  0  0  0  0  0  0
   -4.0922   -0.0206    0.9633 C   0  0  0  0  0  0  0  0  0  0  0  0
   -5.1038    0.6551    0.7934 O   0  0  0  0  0  0  0  0  0  0  0  0
   -4.0183   -1.2101    1.9137 C   0  0  1  0  0  0  0  0  0  0  0  0
   -3.9576   -0.6844    3.3465 C   0  0  0  0  0  0  0  0  0  0  0  0
   -5.2243   -2.1304    1.6717 C   0  0  0  0  0  0  0  0  0  0  0  0
   -5.1229   -3.4575    2.4092 C   0  0  0  0  0  0  0  0  0  0  0  0
   -2.3710   -0.4627   -0.7810 C   0  0  0  0  0  0  0  0  0  0  0  0
   -3.0564   -1.6180   -1.0474 O   0  0  0  0  0  0  0  0  0  0  0  0
   -1.2165   -0.0953   -1.4911 C   0  0  0  0  0  0  0  0  0  0  0  0
   -0.5985   -1.0172   -2.5259 C   0  0  0  0  0  0  0  0  0  0  0  0
    0.0439   -2.2365   -1.9168 C   0  0  0  0  0  0  0  0  0  0  0  0
    1.3451   -2.4297   -1.6139 C   0  0  0  0  0  0  0  0  0  0  0  0
    1.7977   -3.7563   -1.0545 C   0  0  0  0  0  0  0  0  0  0  0  0
    2.4442   -1.4042   -1.8275 C   0  0  0  0  0  0  0  0  0  0  0  0
    2.7942   -0.5706   -0.5851 C   0  0  0  0  0  0  0  0  0  0  0  0
    3.6514   -1.2929    0.4195 C   0  0  0  0  0  0  0  0  0  0  0  0
    4.9972   -1.3138    0.4794 C   0  0  0  0  0  0  0  0  0  0  0  0
    5.7072   -2.0603    1.5780 C   0  0  0  0  0  0  0  0  0  0  0  0
    5.9113   -0.6362   -0.5036 C   0  0  0  0  0  0  0  0  0  0  0  0
   -0.5988    1.1383   -1.1571 C   0  0  0  0  0  0  0  0  0  0  0  0
    0.4958    1.5246   -1.8874 O   0  0  0  0  0  0  0  0  0  0  0  0
   -1.0513    1.9705   -0.1077 C   0  0  0  0  0  0  0  0  0  0  0  0
    2.4321    4.2741   -2.5313 H   0  0  0  0  0  0  0  0  0  0  0  0
    2.3660    5.7534   -1.5521 H   0  0  0  0  0  0  0  0  0  0  0  0
    1.5586    5.6956   -3.1283 H   0  0  0  0  0  0  0  0  0  0  0  0
   -0.1110    5.4811   -1.3217 H   0  0  0  0  0  0  0  0  0  0  0  0
   -0.0471    4.0195   -2.2959 H   0  0  0  0  0  0  0  0  0  0  0  0
    1.5662    3.0316   -0.4829 H   0  0  0  0  0  0  0  0  0  0  0  0
    1.3190    4.4883    0.4077 H   0  0  0  0  0  0  0  0  0  0  0  0
   -0.5508    4.8319    1.7406 H   0  0  0  0  0  0  0  0  0  0  0  0
   -3.0979   -1.7715    1.7121 H   0  0  0  0  0  0  0  0  0  0  0  0
   -3.8133   -1.4976    4.0639 H   0  0  0  0  0  0  0  0  0  0  0  0
   -4.8759   -0.1501    3.6139 H   0  0  0  0  0  0  0  0  0  0  0  0
   -3.1239    0.0154    3.4704 H   0  0  0  0  0  0  0  0  0  0  0  0
   -5.3143   -2.3380    0.5980 H   0  0  0  0  0  0  0  0  0  0  0  0
   -6.1533   -1.6258    1.9650 H   0  0  0  0  0  0  0  0  0  0  0  0
   -4.1993   -3.9830    2.1469 H   0  0  0  0  0  0  0  0  0  0  0  0
   -5.1461   -3.3172    3.4937 H   0  0  0  0  0  0  0  0  0  0  0  0
   -5.9663   -4.1015    2.1402 H   0  0  0  0  0  0  0  0  0  0  0  0
   -2.8115   -1.9765   -1.9141 H   0  0  0  0  0  0  0  0  0  0  0  0
    0.1099   -0.4896   -3.1694 H   0  0  0  0  0  0  0  0  0  0  0  0
   -1.3762   -1.3398   -3.2300 H   0  0  0  0  0  0  0  0  0  0  0  0
   -0.6469   -3.0558   -1.7177 H   0  0  0  0  0  0  0  0  0  0  0  0
    2.1309   -3.6516   -0.0191 H   0  0  0  0  0  0  0  0  0  0  0  0
    0.9964   -4.5032   -1.0649 H   0  0  0  0  0  0  0  0  0  0  0  0
    2.6229   -4.1599   -1.6503 H   0  0  0  0  0  0  0  0  0  0  0  0
    3.3400   -1.9069   -2.2151 H   0  0  0  0  0  0  0  0  0  0  0  0
    2.1539   -0.7108   -2.6240 H   0  0  0  0  0  0  0  0  0  0  0  0
    1.8807   -0.2381   -0.0777 H   0  0  0  0  0  0  0  0  0  0  0  0
    3.2959    0.3500   -0.9057 H   0  0  0  0  0  0  0  0  0  0  0  0
    3.0877   -1.8259    1.1845 H   0  0  0  0  0  0  0  0  0  0  0  0
    5.0097   -2.5370    2.2748 H   0  0  0  0  0  0  0  0  0  0  0  0
    6.3422   -2.8452    1.1544 H   0  0  0  0  0  0  0  0  0  0  0  0
    6.3373   -1.3755    2.1549 H   0  0  0  0  0  0  0  0  0  0  0  0
    6.6179   -1.3614   -0.9213 H   0  0  0  0  0  0  0  0  0  0  0  0
    6.4819    0.1537   -0.0046 H   0  0  0  0  0  0  0  0  0  0  0  0
    5.3811   -0.1856   -1.3463 H   0  0  0  0  0  0  0  0  0  0  0  0
    0.2328    1.5460   -2.8238 H   0  0  0  0  0  0  0  0  0  0  0  0
  1  2  1  0
  2  3  1  0
  3  4  1  0
  4  5  2  0
  5  6  1  0
  6  7  2  0
  6  8  1  0
  8  9  1  0
  9 10  2  0
 10 11  1  0
 11 12  2  0
 11 13  1  0
 13 14  1  0
 13 15  1  0
 15 16  1  0
 10 17  1  0
 17 18  1  0
 17 19  2  0
 19 20  1  0
 20 21  1  0
 21 22  2  3
 22 23  1  0
 22 24  1  0
 24 25  1  0
 25 26  1  0
 26 27  2  3
 27 28  1  0
 27 29  1  0
 19 30  1  0
 30 31  1  0
 30 32  2  0
 32  4  1  0
 32  9  1  0
  1 33  1  0
  1 34  1  0
  1 35  1  0
  2 36  1  0
  2 37  1  0
  3 38  1  0
  3 39  1  0
  5 40  1  0
 13 41  1  6
 14 42  1  0
 14 43  1  0
 14 44  1  0
 15 45  1  0
 15 46  1  0
 16 47  1  0
 16 48  1  0
 16 49  1  0
 18 50  1  0
 20 51  1  0
 20 52  1  0
 21 53  1  0
 23 54  1  0
 23 55  1  0
 23 56  1  0
 24 57  1  0
 24 58  1  0
 25 59  1  0
 25 60  1  0
 26 61  1  0
 28 62  1  0
 28 63  1  0
 28 64  1  0
 29 65  1  0
 29 66  1  0
 29 67  1  0
 31 68  1  0
M  END
>  <Name>  (491) 
Surangin A

>  <PubChem ID>  (491) 
5321563

>  <CDB ID>  (491) 
CDB0491

>  <Smiles>  (491) 
CCCC1=CC(=O)OC2=C(C(=O)[C@@H](C)CC)C(O)=C(CC=C(C)CCC=C(C)C)C(O)=C12

>  <Chemical class>  (491) 
5,7-Dioxygenated Coumarins

>  <Natural source>  (491) 
Mammea longifolia

>  <Molecular Formula>  (491) 
C27H36O5

>  <InChI-Key>  (491) 
HTVCZGDEKPMUHH-SFHVURJKSA-N

>  <Total Molweight>  (491) 
440.578

>  <cLogP>  (491) 
6.9856

>  <cLogS>  (491) 
-5.346

>  <H-Acceptors>  (491) 
5

>  <H-Donors>  (491) 
2

>  <Rotatable Bonds>  (491) 
10

>  <Polar Surface Area>  (491) 
83.83

$$$$
CDB0492
     RDKit          3D

 56 58  0  0  0  0  0  0  0  0999 V2000
    6.0975   -2.1059   -2.0537 C   0  0  0  0  0  0  0  0  0  0  0  0
    6.0112   -1.1990   -0.8328 C   0  0  0  0  0  0  0  0  0  0  0  0
    4.6154   -0.5821   -0.6299 C   0  0  0  0  0  0  0  0  0  0  0  0
    3.4772   -1.4582   -0.1309 C   0  0  0  0  0  0  0  0  0  0  0  0
    3.6687   -2.7270    0.2686 C   0  0  0  0  0  0  0  0  0  0  0  0
    2.6047   -3.6275    0.7252 C   0  0  0  0  0  0  0  0  0  0  0  0
    2.8575   -4.7694    1.0903 O   0  0  0  0  0  0  0  0  0  0  0  0
    1.3230   -3.1243    0.7068 O   0  0  0  0  0  0  0  0  0  0  0  0
    1.0761   -1.7907    0.3467 C   0  0  0  0  0  0  0  0  0  0  0  0
   -0.2461   -1.3819    0.4220 C   0  0  0  0  0  0  0  0  0  0  0  0
   -1.4535   -2.1844    0.7337 C   0  0  0  0  0  0  0  0  0  0  0  0
   -2.4655   -1.0463    0.9239 C   0  0  0  0  0  0  0  0  0  0  0  0
   -1.9591    0.1156    0.2038 O   0  0  0  0  0  0  0  0  0  0  0  0
   -0.6065   -0.0840    0.1087 C   0  0  0  0  0  0  0  0  0  0  0  0
    0.3376    0.8481   -0.2893 C   0  0  0  0  0  0  0  0  0  0  0  0
    1.6906    0.4163   -0.3799 C   0  0  0  0  0  0  0  0  0  0  0  0
    2.0898   -0.9126   -0.0622 C   0  0  0  0  0  0  0  0  0  0  0  0
    2.6592    1.3159   -0.7689 O   0  0  0  0  0  0  0  0  0  0  0  0
   -0.0101    2.2620   -0.6246 C   0  0  0  0  0  0  0  0  0  0  0  0
    0.7696    2.8797   -1.3571 O   0  0  0  0  0  0  0  0  0  0  0  0
   -1.2554    2.9321   -0.0492 C   0  0  0  0  0  0  0  0  0  0  0  0
   -2.3373    2.9760   -1.1265 C   0  0  0  0  0  0  0  0  0  0  0  0
   -0.8824    4.3399    0.4537 C   0  0  0  0  0  0  0  0  0  0  0  0
   -2.0057    5.0186    1.2246 C   0  0  0  0  0  0  0  0  0  0  0  0
   -3.9063   -1.3858    0.4624 C   0  0  0  0  0  0  0  0  0  0  0  0
   -4.4922   -2.5262    1.3008 C   0  0  0  0  0  0  0  0  0  0  0  0
   -4.8119   -0.1514    0.5494 C   0  0  0  0  0  0  0  0  0  0  0  0
   -3.8837   -1.8192   -0.9036 O   0  0  0  0  0  0  0  0  0  0  0  0
    5.8376   -1.5572   -2.9648 H   0  0  0  0  0  0  0  0  0  0  0  0
    5.4308   -2.9684   -1.9753 H   0  0  0  0  0  0  0  0  0  0  0  0
    7.1192   -2.4819   -2.1690 H   0  0  0  0  0  0  0  0  0  0  0  0
    6.3396   -1.7349    0.0645 H   0  0  0  0  0  0  0  0  0  0  0  0
    6.7264   -0.3789   -0.9756 H   0  0  0  0  0  0  0  0  0  0  0  0
    4.7402    0.2387    0.0884 H   0  0  0  0  0  0  0  0  0  0  0  0
    4.3308   -0.1465   -1.5956 H   0  0  0  0  0  0  0  0  0  0  0  0
    4.6442   -3.1970    0.2752 H   0  0  0  0  0  0  0  0  0  0  0  0
   -1.6927   -2.8339   -0.1139 H   0  0  0  0  0  0  0  0  0  0  0  0
   -1.3515   -2.7842    1.6426 H   0  0  0  0  0  0  0  0  0  0  0  0
   -2.4916   -0.7546    1.9846 H   0  0  0  0  0  0  0  0  0  0  0  0
    2.2212    2.1086   -1.1558 H   0  0  0  0  0  0  0  0  0  0  0  0
   -1.6091    2.3693    0.8192 H   0  0  0  0  0  0  0  0  0  0  0  0
   -2.0638    3.6644   -1.9340 H   0  0  0  0  0  0  0  0  0  0  0  0
   -2.4911    1.9924   -1.5821 H   0  0  0  0  0  0  0  0  0  0  0  0
   -3.2956    3.3022   -0.7111 H   0  0  0  0  0  0  0  0  0  0  0  0
   -0.5861    4.9811   -0.3859 H   0  0  0  0  0  0  0  0  0  0  0  0
   -0.0057    4.2673    1.1101 H   0  0  0  0  0  0  0  0  0  0  0  0
   -2.3345    4.4005    2.0659 H   0  0  0  0  0  0  0  0  0  0  0  0
   -1.6603    5.9775    1.6243 H   0  0  0  0  0  0  0  0  0  0  0  0
   -2.8687    5.2185    0.5830 H   0  0  0  0  0  0  0  0  0  0  0  0
   -3.9130   -3.4479    1.1781 H   0  0  0  0  0  0  0  0  0  0  0  0
   -4.5198   -2.2699    2.3648 H   0  0  0  0  0  0  0  0  0  0  0  0
   -5.5122   -2.7638    0.9770 H   0  0  0  0  0  0  0  0  0  0  0  0
   -5.8378   -0.3978    0.2519 H   0  0  0  0  0  0  0  0  0  0  0  0
   -4.4788    0.6351   -0.1365 H   0  0  0  0  0  0  0  0  0  0  0  0
   -4.8379    0.2567    1.5650 H   0  0  0  0  0  0  0  0  0  0  0  0
   -4.8023   -1.9238   -1.2068 H   0  0  0  0  0  0  0  0  0  0  0  0
  1  2  1  0
  2  3  1  0
  3  4  1  0
  4  5  2  0
  5  6  1  0
  6  7  2  0
  6  8  1  0
  8  9  1  0
  9 10  1  0
 10 11  1  0
 11 12  1  0
 12 13  1  0
 13 14  1  0
 14 15  1  0
 15 16  2  0
 16 17  1  0
 16 18  1  0
 15 19  1  0
 19 20  2  0
 19 21  1  0
 21 22  1  0
 21 23  1  0
 23 24  1  0
 12 25  1  0
 25 26  1  0
 25 27  1  0
 25 28  1  0
 17  4  1  0
 17  9  2  0
 14 10  2  0
  1 29  1  0
  1 30  1  0
  1 31  1  0
  2 32  1  0
  2 33  1  0
  3 34  1  0
  3 35  1  0
  5 36  1  0
 11 37  1  0
 11 38  1  0
 12 39  1  0
 18 40  1  0
 21 41  1  0
 22 42  1  0
 22 43  1  0
 22 44  1  0
 23 45  1  0
 23 46  1  0
 24 47  1  0
 24 48  1  0
 24 49  1  0
 26 50  1  0
 26 51  1  0
 26 52  1  0
 27 53  1  0
 27 54  1  0
 27 55  1  0
 28 56  1  0
M  END
>  <Name>  (492) 
(Mab 4)Mammeab/Ab Cyclo F

>  <PubChem ID>  (492) 
131751071

>  <CDB ID>  (492) 
CDB0492

>  <Smiles>  (492) 
CCCC1=CC(=O)OC2=C3CC(OC3=C(C(=C12)O)C(=O)C(C)CC)C(C)(C)O

>  <Chemical class>  (492) 
5,7-Dioxygenated Coumarins

>  <Natural source>  (492) 
Mammea africana

>  <Molecular Formula>  (492) 
C22H28O6

>  <InChI-Key>  (492) 
KTJYLXIAFCVVBF-UHFFFAOYSA-N

>  <Total Molweight>  (492) 
388.458

>  <cLogP>  (492) 
3.5007

>  <cLogS>  (492) 
-4.452

>  <H-Acceptors>  (492) 
6

>  <H-Donors>  (492) 
2

>  <Rotatable Bonds>  (492) 
6

>  <Polar Surface Area>  (492) 
93.06

$$$$
CDB0493
     RDKit          3D

 56 58  0  0  0  0  0  0  0  0999 V2000
    5.2654   -0.6822   -3.0099 C   0  0  0  0  0  0  0  0  0  0  0  0
    3.9114   -0.1998   -3.5131 C   0  0  0  0  0  0  0  0  0  0  0  0
    2.8550   -1.3123   -3.5774 C   0  0  0  0  0  0  0  0  0  0  0  0
    2.4580   -1.8799   -2.2316 C   0  0  0  0  0  0  0  0  0  0  0  0
    2.9522   -3.0753   -1.8665 C   0  0  0  0  0  0  0  0  0  0  0  0
    2.6696   -3.7278   -0.5850 C   0  0  0  0  0  0  0  0  0  0  0  0
    3.1479   -4.8217   -0.3111 O   0  0  0  0  0  0  0  0  0  0  0  0
    1.8532   -3.0390    0.2875 O   0  0  0  0  0  0  0  0  0  0  0  0
    1.2809   -1.8072   -0.0715 C   0  0  0  0  0  0  0  0  0  0  0  0
    0.4248   -1.2447    0.8628 C   0  0  0  0  0  0  0  0  0  0  0  0
    0.0579   -1.7316    2.2120 C   0  0  0  0  0  0  0  0  0  0  0  0
   -1.1476   -0.8226    2.5018 C   0  0  0  0  0  0  0  0  0  0  0  0
   -1.0406    0.3404    1.6253 O   0  0  0  0  0  0  0  0  0  0  0  0
   -0.1986   -0.0383    0.6129 C   0  0  0  0  0  0  0  0  0  0  0  0
    0.0264    0.6471   -0.5671 C   0  0  0  0  0  0  0  0  0  0  0  0
    0.8621    0.0442   -1.5428 C   0  0  0  0  0  0  0  0  0  0  0  0
    1.5293   -1.1855   -1.3049 C   0  0  0  0  0  0  0  0  0  0  0  0
    1.0282    0.6682   -2.7582 O   0  0  0  0  0  0  0  0  0  0  0  0
   -0.5826    1.9714   -0.8469 C   0  0  0  0  0  0  0  0  0  0  0  0
   -0.9021    2.2129   -2.0138 O   0  0  0  0  0  0  0  0  0  0  0  0
   -0.6402    3.0313    0.2405 C   0  0  0  0  0  0  0  0  0  0  0  0
   -1.9282    3.8658    0.1791 C   0  0  0  0  0  0  0  0  0  0  0  0
   -1.8024    5.0941    1.0820 C   0  0  0  0  0  0  0  0  0  0  0  0
   -3.1474    3.0407    0.5908 C   0  0  0  0  0  0  0  0  0  0  0  0
   -2.5429   -1.5067    2.3382 C   0  0  0  0  0  0  0  0  0  0  0  0
   -2.7550   -2.5990    3.3944 C   0  0  0  0  0  0  0  0  0  0  0  0
   -3.6685   -0.4724    2.4556 C   0  0  0  0  0  0  0  0  0  0  0  0
   -2.6852   -2.1045    1.0431 O   0  0  0  0  0  0  0  0  0  0  0  0
    5.9983    0.1288   -3.0701 H   0  0  0  0  0  0  0  0  0  0  0  0
    5.6351   -1.5170   -3.6137 H   0  0  0  0  0  0  0  0  0  0  0  0
    5.2130   -1.0051   -1.9658 H   0  0  0  0  0  0  0  0  0  0  0  0
    3.5762    0.6284   -2.8803 H   0  0  0  0  0  0  0  0  0  0  0  0
    4.0428    0.2087   -4.5224 H   0  0  0  0  0  0  0  0  0  0  0  0
    1.9701   -0.9709   -4.1249 H   0  0  0  0  0  0  0  0  0  0  0  0
    3.2559   -2.1153   -4.2127 H   0  0  0  0  0  0  0  0  0  0  0  0
    3.6252   -3.6345   -2.5079 H   0  0  0  0  0  0  0  0  0  0  0  0
   -0.1716   -2.7984    2.2379 H   0  0  0  0  0  0  0  0  0  0  0  0
    0.8757   -1.5212    2.9101 H   0  0  0  0  0  0  0  0  0  0  0  0
   -1.0716   -0.4457    3.5302 H   0  0  0  0  0  0  0  0  0  0  0  0
    0.3123    1.3350   -2.8718 H   0  0  0  0  0  0  0  0  0  0  0  0
   -0.5060    2.6126    1.2394 H   0  0  0  0  0  0  0  0  0  0  0  0
    0.2274    3.6812    0.0656 H   0  0  0  0  0  0  0  0  0  0  0  0
   -2.0871    4.2181   -0.8477 H   0  0  0  0  0  0  0  0  0  0  0  0
   -2.7082    5.7078    1.0326 H   0  0  0  0  0  0  0  0  0  0  0  0
   -0.9588    5.7199    0.7719 H   0  0  0  0  0  0  0  0  0  0  0  0
   -1.6449    4.8057    2.1269 H   0  0  0  0  0  0  0  0  0  0  0  0
   -3.0503    2.6783    1.6196 H   0  0  0  0  0  0  0  0  0  0  0  0
   -4.0604    3.6428    0.5317 H   0  0  0  0  0  0  0  0  0  0  0  0
   -3.2799    2.1750   -0.0658 H   0  0  0  0  0  0  0  0  0  0  0  0
   -3.7438   -3.0592    3.2826 H   0  0  0  0  0  0  0  0  0  0  0  0
   -2.0327   -3.4142    3.2873 H   0  0  0  0  0  0  0  0  0  0  0  0
   -2.6754   -2.1964    4.4094 H   0  0  0  0  0  0  0  0  0  0  0  0
   -4.6505   -0.9561    2.3933 H   0  0  0  0  0  0  0  0  0  0  0  0
   -3.6358    0.2429    1.6280 H   0  0  0  0  0  0  0  0  0  0  0  0
   -3.6150    0.0776    3.4006 H   0  0  0  0  0  0  0  0  0  0  0  0
   -2.1215   -2.8944    0.9898 H   0  0  0  0  0  0  0  0  0  0  0  0
  1  2  1  0
  2  3  1  0
  3  4  1  0
  4  5  2  0
  5  6  1  0
  6  7  2  0
  6  8  1  0
  8  9  1  0
  9 10  1  0
 10 11  1  0
 11 12  1  0
 12 13  1  0
 13 14  1  0
 14 15  1  0
 15 16  2  0
 16 17  1  0
 16 18  1  0
 15 19  1  0
 19 20  2  0
 19 21  1  0
 21 22  1  0
 22 23  1  0
 22 24  1  0
 12 25  1  0
 25 26  1  0
 25 27  1  0
 25 28  1  0
 17  4  1  0
 17  9  2  0
 14 10  2  0
  1 29  1  0
  1 30  1  0
  1 31  1  0
  2 32  1  0
  2 33  1  0
  3 34  1  0
  3 35  1  0
  5 36  1  0
 11 37  1  0
 11 38  1  0
 12 39  1  0
 18 40  1  0
 21 41  1  0
 21 42  1  0
 22 43  1  0
 23 44  1  0
 23 45  1  0
 23 46  1  0
 24 47  1  0
 24 48  1  0
 24 49  1  0
 26 50  1  0
 26 51  1  0
 26 52  1  0
 27 53  1  0
 27 54  1  0
 27 55  1  0
 28 56  1  0
M  END
>  <Name>  (493) 
(Furomammea G) Mammea B/Aa Cyclo F

>  <PubChem ID>  (493) 
90472431

>  <CDB ID>  (493) 
CDB0493

>  <Smiles>  (493) 
CCCC1=CC(=O)OC2=C3CC(OC3=C(C(=C12)O)C(=O)CC(C)C)C(C)(C)O

>  <Chemical class>  (493) 
5,7-Dioxygenated Coumarins

>  <Natural source>  (493) 
Mammea americana

>  <Molecular Formula>  (493) 
C22H28O6

>  <InChI-Key>  (493) 
KYKWIMFWAYVDJI-OAHLLOKOSA-N

>  <Total Molweight>  (493) 
388.458

>  <cLogP>  (493) 
3.5007

>  <cLogS>  (493) 
-4.452

>  <H-Acceptors>  (493) 
6

>  <H-Donors>  (493) 
2

>  <Rotatable Bonds>  (493) 
6

>  <Polar Surface Area>  (493) 
93.06

$$$$
CDB0494
     RDKit          3D

 56 58  0  0  0  0  0  0  0  0999 V2000
    5.6661    0.3105    1.5648 C   0  0  0  0  0  0  0  0  0  0  0  0
    5.1561   -0.3208    0.2761 C   0  0  0  0  0  0  0  0  0  0  0  0
    4.4670    0.6816   -0.6611 C   0  0  0  0  0  0  0  0  0  0  0  0
    3.1785    1.2633   -0.1199 C   0  0  0  0  0  0  0  0  0  0  0  0
    3.2006    2.5118    0.3763 C   0  0  0  0  0  0  0  0  0  0  0  0
    2.0355    3.1905    0.9465 C   0  0  0  0  0  0  0  0  0  0  0  0
    2.1097    4.3407    1.3588 O   0  0  0  0  0  0  0  0  0  0  0  0
    0.8697    2.4568    0.9902 O   0  0  0  0  0  0  0  0  0  0  0  0
    0.7780    1.1574    0.4435 C   0  0  0  0  0  0  0  0  0  0  0  0
    1.8881    0.5286   -0.1373 C   0  0  0  0  0  0  0  0  0  0  0  0
    1.6655   -0.7569   -0.6783 C   0  0  0  0  0  0  0  0  0  0  0  0
    0.3944   -1.3806   -0.6628 C   0  0  0  0  0  0  0  0  0  0  0  0
    0.1792   -2.7271   -1.3008 C   0  0  0  0  0  0  0  0  0  0  0  0
   -1.2995   -3.0346   -1.5152 C   0  0  0  0  0  0  0  0  0  0  0  0
   -2.1135   -2.6413   -0.2665 C   0  0  0  0  0  0  0  0  0  0  0  0
   -1.9393   -1.2443    0.0293 O   0  0  0  0  0  0  0  0  0  0  0  0
   -0.6741   -0.7280   -0.0378 C   0  0  0  0  0  0  0  0  0  0  0  0
   -0.4783    0.5416    0.5081 C   0  0  0  0  0  0  0  0  0  0  0  0
   -1.5970    1.2279    1.1857 C   0  0  0  0  0  0  0  0  0  0  0  0
   -1.9365    0.8476    2.3027 O   0  0  0  0  0  0  0  0  0  0  0  0
   -2.2775    2.3651    0.4324 C   0  0  0  0  0  0  0  0  0  0  0  0
   -2.4544    3.5557    1.3738 C   0  0  0  0  0  0  0  0  0  0  0  0
   -3.6087    1.8557   -0.1396 C   0  0  0  0  0  0  0  0  0  0  0  0
   -4.3232    2.8781   -1.0108 C   0  0  0  0  0  0  0  0  0  0  0  0
   -1.7729   -3.4717    0.9823 C   0  0  0  0  0  0  0  0  0  0  0  0
   -3.6130   -2.8189   -0.5583 C   0  0  0  0  0  0  0  0  0  0  0  0
   -1.4568   -4.4161   -1.8364 O   0  0  0  0  0  0  0  0  0  0  0  0
    2.7063   -1.4265   -1.2680 O   0  0  0  0  0  0  0  0  0  0  0  0
    6.2239   -0.4285    2.1490 H   0  0  0  0  0  0  0  0  0  0  0  0
    4.8422    0.6718    2.1873 H   0  0  0  0  0  0  0  0  0  0  0  0
    6.3363    1.1497    1.3537 H   0  0  0  0  0  0  0  0  0  0  0  0
    4.4868   -1.1486    0.5317 H   0  0  0  0  0  0  0  0  0  0  0  0
    6.0093   -0.7587   -0.2559 H   0  0  0  0  0  0  0  0  0  0  0  0
    4.3009    0.2343   -1.6468 H   0  0  0  0  0  0  0  0  0  0  0  0
    5.1816    1.4922   -0.8647 H   0  0  0  0  0  0  0  0  0  0  0  0
    4.1107    3.1020    0.4015 H   0  0  0  0  0  0  0  0  0  0  0  0
    0.6426   -3.5022   -0.6775 H   0  0  0  0  0  0  0  0  0  0  0  0
    0.6803   -2.7726   -2.2761 H   0  0  0  0  0  0  0  0  0  0  0  0
   -1.6584   -2.4461   -2.3708 H   0  0  0  0  0  0  0  0  0  0  0  0
   -1.6291    2.6789   -0.3950 H   0  0  0  0  0  0  0  0  0  0  0  0
   -1.5081    3.8124    1.8624 H   0  0  0  0  0  0  0  0  0  0  0  0
   -2.7965    4.4423    0.8314 H   0  0  0  0  0  0  0  0  0  0  0  0
   -3.1822    3.3364    2.1628 H   0  0  0  0  0  0  0  0  0  0  0  0
   -3.4252    0.9596   -0.7447 H   0  0  0  0  0  0  0  0  0  0  0  0
   -4.2762    1.5440    0.6735 H   0  0  0  0  0  0  0  0  0  0  0  0
   -3.6733    3.2282   -1.8190 H   0  0  0  0  0  0  0  0  0  0  0  0
   -5.2133    2.4288   -1.4629 H   0  0  0  0  0  0  0  0  0  0  0  0
   -4.6502    3.7439   -0.4277 H   0  0  0  0  0  0  0  0  0  0  0  0
   -2.3796   -3.1476    1.8362 H   0  0  0  0  0  0  0  0  0  0  0  0
   -0.7307   -3.3415    1.2905 H   0  0  0  0  0  0  0  0  0  0  0  0
   -1.9514   -4.5395    0.8201 H   0  0  0  0  0  0  0  0  0  0  0  0
   -3.9166   -2.2086   -1.4168 H   0  0  0  0  0  0  0  0  0  0  0  0
   -3.8704   -3.8625   -0.7658 H   0  0  0  0  0  0  0  0  0  0  0  0
   -4.2183   -2.4757    0.2890 H   0  0  0  0  0  0  0  0  0  0  0  0
   -1.0903   -4.5574   -2.7269 H   0  0  0  0  0  0  0  0  0  0  0  0
    2.6053   -2.3807   -1.1163 H   0  0  0  0  0  0  0  0  0  0  0  0
  1  2  1  0
  2  3  1  0
  3  4  1  0
  4  5  2  0
  5  6  1  0
  6  7  2  0
  6  8  1  0
  8  9  1  0
  9 10  1  0
 10 11  2  0
 11 12  1  0
 12 13  1  0
 13 14  1  0
 14 15  1  0
 15 16  1  0
 16 17  1  0
 17 18  1  0
 18 19  1  0
 19 20  2  0
 19 21  1  0
 21 22  1  0
 21 23  1  0
 23 24  1  0
 15 25  1  0
 15 26  1  0
 14 27  1  0
 11 28  1  0
 10  4  1  0
 18  9  2  0
 17 12  2  0
  1 29  1  0
  1 30  1  0
  1 31  1  0
  2 32  1  0
  2 33  1  0
  3 34  1  0
  3 35  1  0
  5 36  1  0
 13 37  1  0
 13 38  1  0
 14 39  1  0
 21 40  1  0
 22 41  1  0
 22 42  1  0
 22 43  1  0
 23 44  1  0
 23 45  1  0
 24 46  1  0
 24 47  1  0
 24 48  1  0
 25 49  1  0
 25 50  1  0
 25 51  1  0
 26 52  1  0
 26 53  1  0
 26 54  1  0
 27 55  1  0
 28 56  1  0
M  END
>  <Name>  (494) 
Pyranomammea B

>  <PubChem ID>  (494) 
131752522

>  <CDB ID>  (494) 
CDB0494

>  <Smiles>  (494) 
CCCC1=CC(=O)OC2=C1C(=C3CC(C(OC3=C2C(=O)C(C)CC)(C)C)O)O

>  <Chemical class>  (494) 
5,7-Dioxygenated Coumarins

>  <Natural source>  (494) 
Mammea americana

>  <Molecular Formula>  (494) 
C22H28O6

>  <InChI-Key>  (494) 
IWAUBOJXTGEZNN-UHFFFAOYSA-N

>  <Total Molweight>  (494) 
388.458

>  <cLogP>  (494) 
3.4754

>  <cLogS>  (494) 
-4.452

>  <H-Acceptors>  (494) 
6

>  <H-Donors>  (494) 
2

>  <Rotatable Bonds>  (494) 
5

>  <Polar Surface Area>  (494) 
93.06

$$$$
CDB0495
     RDKit          3D

 56 58  0  0  0  0  0  0  0  0999 V2000
    5.7698   -2.5707   -0.0086 C   0  0  0  0  0  0  0  0  0  0  0  0
    4.2507   -2.6107    0.0546 C   0  0  0  0  0  0  0  0  0  0  0  0
    3.7378   -2.1591    1.4266 C   0  0  0  0  0  0  0  0  0  0  0  0
    2.2274   -2.1331    1.5002 C   0  0  0  0  0  0  0  0  0  0  0  0
    1.5996   -3.1776    2.0654 C   0  0  0  0  0  0  0  0  0  0  0  0
    0.1452   -3.2906    2.1950 C   0  0  0  0  0  0  0  0  0  0  0  0
   -0.3690   -4.2889    2.6831 O   0  0  0  0  0  0  0  0  0  0  0  0
   -0.5868   -2.2244    1.7206 O   0  0  0  0  0  0  0  0  0  0  0  0
    0.0203   -1.0845    1.1452 C   0  0  0  0  0  0  0  0  0  0  0  0
    1.4120   -0.9990    0.9969 C   0  0  0  0  0  0  0  0  0  0  0  0
    1.9043    0.1744    0.3853 C   0  0  0  0  0  0  0  0  0  0  0  0
    1.0521    1.1945   -0.1011 C   0  0  0  0  0  0  0  0  0  0  0  0
    1.6106    2.3997   -0.8091 C   0  0  0  0  0  0  0  0  0  0  0  0
    0.5358    3.1637   -1.5749 C   0  0  0  0  0  0  0  0  0  0  0  0
   -0.7310    3.3112   -0.7087 C   0  0  0  0  0  0  0  0  0  0  0  0
   -1.2320    2.0205   -0.3143 O   0  0  0  0  0  0  0  0  0  0  0  0
   -0.3292    1.0750    0.0909 C   0  0  0  0  0  0  0  0  0  0  0  0
   -0.8416   -0.0668    0.7124 C   0  0  0  0  0  0  0  0  0  0  0  0
   -2.2962   -0.1962    0.9466 C   0  0  0  0  0  0  0  0  0  0  0  0
   -2.7136   -0.2202    2.1005 O   0  0  0  0  0  0  0  0  0  0  0  0
   -3.1944   -0.2685   -0.2750 C   0  0  0  0  0  0  0  0  0  0  0  0
   -4.3527   -1.2615   -0.0958 C   0  0  0  0  0  0  0  0  0  0  0  0
   -5.3558   -1.1055   -1.2401 C   0  0  0  0  0  0  0  0  0  0  0  0
   -3.8503   -2.7057   -0.0384 C   0  0  0  0  0  0  0  0  0  0  0  0
   -1.8503    3.9510   -1.5471 C   0  0  0  0  0  0  0  0  0  0  0  0
   -0.5259    4.1767    0.5458 C   0  0  0  0  0  0  0  0  0  0  0  0
    1.0489    4.4320   -1.9796 O   0  0  0  0  0  0  0  0  0  0  0  0
    3.2572    0.3378    0.2355 O   0  0  0  0  0  0  0  0  0  0  0  0
    6.1172   -2.9077   -0.9903 H   0  0  0  0  0  0  0  0  0  0  0  0
    6.2119   -3.2237    0.7506 H   0  0  0  0  0  0  0  0  0  0  0  0
    6.1416   -1.5538    0.1526 H   0  0  0  0  0  0  0  0  0  0  0  0
    3.9130   -3.6346   -0.1475 H   0  0  0  0  0  0  0  0  0  0  0  0
    3.8448   -1.9830   -0.7460 H   0  0  0  0  0  0  0  0  0  0  0  0
    4.1648   -1.1966    1.7266 H   0  0  0  0  0  0  0  0  0  0  0  0
    4.1282   -2.8618    2.1772 H   0  0  0  0  0  0  0  0  0  0  0  0
    2.1443   -4.0312    2.4548 H   0  0  0  0  0  0  0  0  0  0  0  0
    2.0988    3.0576   -0.0792 H   0  0  0  0  0  0  0  0  0  0  0  0
    2.3875    2.0977   -1.5229 H   0  0  0  0  0  0  0  0  0  0  0  0
    0.2814    2.5973   -2.4814 H   0  0  0  0  0  0  0  0  0  0  0  0
   -3.5915    0.7403   -0.4397 H   0  0  0  0  0  0  0  0  0  0  0  0
   -2.6021   -0.5409   -1.1568 H   0  0  0  0  0  0  0  0  0  0  0  0
   -4.8765   -1.0454    0.8438 H   0  0  0  0  0  0  0  0  0  0  0  0
   -5.7570   -0.0869   -1.2696 H   0  0  0  0  0  0  0  0  0  0  0  0
   -4.8898   -1.3148   -2.2091 H   0  0  0  0  0  0  0  0  0  0  0  0
   -6.1997   -1.7921   -1.1144 H   0  0  0  0  0  0  0  0  0  0  0  0
   -4.6887   -3.4041    0.0569 H   0  0  0  0  0  0  0  0  0  0  0  0
   -3.2925   -2.9695   -0.9434 H   0  0  0  0  0  0  0  0  0  0  0  0
   -3.1941   -2.8629    0.8228 H   0  0  0  0  0  0  0  0  0  0  0  0
   -1.5916    4.9634   -1.8737 H   0  0  0  0  0  0  0  0  0  0  0  0
   -2.0663    3.3442   -2.4341 H   0  0  0  0  0  0  0  0  0  0  0  0
   -2.7853    4.0006   -0.9765 H   0  0  0  0  0  0  0  0  0  0  0  0
   -1.4577    4.2491    1.1192 H   0  0  0  0  0  0  0  0  0  0  0  0
    0.2108    3.7415    1.2285 H   0  0  0  0  0  0  0  0  0  0  0  0
   -0.2006    5.1903    0.2907 H   0  0  0  0  0  0  0  0  0  0  0  0
    1.7232    4.2755   -2.6639 H   0  0  0  0  0  0  0  0  0  0  0  0
    3.4829    1.2776    0.3334 H   0  0  0  0  0  0  0  0  0  0  0  0
  1  2  1  0
  2  3  1  0
  3  4  1  0
  4  5  2  0
  5  6  1  0
  6  7  2  0
  6  8  1  0
  8  9  1  0
  9 10  1  0
 10 11  2  0
 11 12  1  0
 12 13  1  0
 13 14  1  0
 14 15  1  0
 15 16  1  0
 16 17  1  0
 17 18  1  0
 18 19  1  0
 19 20  2  0
 19 21  1  0
 21 22  1  0
 22 23  1  0
 22 24  1  0
 15 25  1  0
 15 26  1  0
 14 27  1  0
 11 28  1  0
 10  4  1  0
 18  9  2  0
 17 12  2  0
  1 29  1  0
  1 30  1  0
  1 31  1  0
  2 32  1  0
  2 33  1  0
  3 34  1  0
  3 35  1  0
  5 36  1  0
 13 37  1  0
 13 38  1  0
 14 39  1  0
 21 40  1  0
 21 41  1  0
 22 42  1  0
 23 43  1  0
 23 44  1  0
 23 45  1  0
 24 46  1  0
 24 47  1  0
 24 48  1  0
 25 49  1  0
 25 50  1  0
 25 51  1  0
 26 52  1  0
 26 53  1  0
 26 54  1  0
 27 55  1  0
 28 56  1  0
M  END
>  <Name>  (495) 
Pyranomammea C

>  <PubChem ID>  (495) 
71436829

>  <CDB ID>  (495) 
CDB0495

>  <Smiles>  (495) 
CCCC1=CC(=O)OC2=C1C(=C3CC(C(OC3=C2C(=O)CC(C)C)(C)C)O)O

>  <Chemical class>  (495) 
5,7-Dioxygenated Coumarins

>  <Natural source>  (495) 
Mammea americana

>  <Molecular Formula>  (495) 
C22H28O6

>  <InChI-Key>  (495) 
IWXVZIMHJKPWIP-OAHLLOKOSA-N

>  <Total Molweight>  (495) 
388.458

>  <cLogP>  (495) 
3.4754

>  <cLogS>  (495) 
-4.452

>  <H-Acceptors>  (495) 
6

>  <H-Donors>  (495) 
2

>  <Rotatable Bonds>  (495) 
5

>  <Polar Surface Area>  (495) 
93.06

$$$$
CDB0496
     RDKit          3D

 57 59  0  0  0  0  0  0  0  0999 V2000
   -2.2896    4.0907    1.9073 C   0  0  0  0  0  0  0  0  0  0  0  0
   -2.6614    3.0552    0.8547 C   0  0  0  0  0  0  0  0  0  0  0  0
   -1.6922    3.0242   -0.3355 C   0  0  0  0  0  0  0  0  0  0  0  0
   -0.2894    2.5747    0.0078 C   0  0  0  0  0  0  0  0  0  0  0  0
    0.6922    3.4862    0.1022 C   0  0  0  0  0  0  0  0  0  0  0  0
    2.0848    3.1626    0.4310 C   0  0  0  0  0  0  0  0  0  0  0  0
    2.9405    4.0379    0.4709 O   0  0  0  0  0  0  0  0  0  0  0  0
    2.3588    1.8337    0.6809 O   0  0  0  0  0  0  0  0  0  0  0  0
    1.3711    0.8261    0.5752 C   0  0  0  0  0  0  0  0  0  0  0  0
    1.7868   -0.5040    0.7980 C   0  0  0  0  0  0  0  0  0  0  0  0
    0.8818   -1.5558    0.6412 C   0  0  0  0  0  0  0  0  0  0  0  0
   -0.4204   -1.2523    0.2906 C   0  0  0  0  0  0  0  0  0  0  0  0
   -1.5630   -2.1559    0.0028 C   0  0  0  0  0  0  0  0  0  0  0  0
   -2.7089   -1.1357    0.0319 C   0  0  0  0  0  0  0  0  0  0  0  0
   -2.1354    0.1594   -0.2890 O   0  0  0  0  0  0  0  0  0  0  0  0
   -0.8152    0.0720    0.0848 C   0  0  0  0  0  0  0  0  0  0  0  0
    0.0549    1.1543    0.2145 C   0  0  0  0  0  0  0  0  0  0  0  0
   -3.8919   -1.4642   -0.9198 C   0  0  0  0  0  0  0  0  0  0  0  0
   -4.5545   -2.7790   -0.4812 C   0  0  0  0  0  0  0  0  0  0  0  0
   -4.9080   -0.3111   -0.8956 C   0  0  0  0  0  0  0  0  0  0  0  0
   -3.3517   -1.6082   -2.2508 O   0  0  0  0  0  0  0  0  0  0  0  0
   -4.4563   -1.9138   -3.1515 O   0  0  0  0  0  0  0  0  0  0  0  0
    1.2852   -2.8428    0.8314 O   0  0  0  0  0  0  0  0  0  0  0  0
    3.1794   -0.7733    1.2147 C   0  0  0  0  0  0  0  0  0  0  0  0
    3.5908   -0.2916    2.2665 O   0  0  0  0  0  0  0  0  0  0  0  0
    4.0218   -1.6564    0.3122 C   0  0  0  0  0  0  0  0  0  0  0  0
    5.4708   -1.1599    0.1938 C   0  0  0  0  0  0  0  0  0  0  0  0
    6.3283   -2.2127   -0.5105 C   0  0  0  0  0  0  0  0  0  0  0  0
    5.5483    0.1666   -0.5656 C   0  0  0  0  0  0  0  0  0  0  0  0
   -2.2063    5.0887    1.4654 H   0  0  0  0  0  0  0  0  0  0  0  0
   -1.3402    3.8456    2.3927 H   0  0  0  0  0  0  0  0  0  0  0  0
   -3.0597    4.1286    2.6845 H   0  0  0  0  0  0  0  0  0  0  0  0
   -2.7292    2.0736    1.3348 H   0  0  0  0  0  0  0  0  0  0  0  0
   -3.6638    3.2894    0.4765 H   0  0  0  0  0  0  0  0  0  0  0  0
   -1.6610    4.0333   -0.7704 H   0  0  0  0  0  0  0  0  0  0  0  0
   -2.1019    2.4034   -1.1401 H   0  0  0  0  0  0  0  0  0  0  0  0
    0.5078    4.5439   -0.0527 H   0  0  0  0  0  0  0  0  0  0  0  0
   -1.7036   -2.9307    0.7617 H   0  0  0  0  0  0  0  0  0  0  0  0
   -1.4240   -2.6190   -0.9788 H   0  0  0  0  0  0  0  0  0  0  0  0
   -3.0930   -1.0499    1.0600 H   0  0  0  0  0  0  0  0  0  0  0  0
   -3.8760   -3.6284   -0.6155 H   0  0  0  0  0  0  0  0  0  0  0  0
   -4.8644   -2.7395    0.5684 H   0  0  0  0  0  0  0  0  0  0  0  0
   -5.4438   -2.9986   -1.0824 H   0  0  0  0  0  0  0  0  0  0  0  0
   -5.2360   -0.0898    0.1256 H   0  0  0  0  0  0  0  0  0  0  0  0
   -5.7990   -0.5507   -1.4865 H   0  0  0  0  0  0  0  0  0  0  0  0
   -4.4846    0.5995   -1.3338 H   0  0  0  0  0  0  0  0  0  0  0  0
   -4.0349   -2.6758   -3.5882 H   0  0  0  0  0  0  0  0  0  0  0  0
    0.5298   -3.4473    0.7474 H   0  0  0  0  0  0  0  0  0  0  0  0
    3.5665   -1.7152   -0.6836 H   0  0  0  0  0  0  0  0  0  0  0  0
    4.0060   -2.6634    0.7461 H   0  0  0  0  0  0  0  0  0  0  0  0
    5.8860   -1.0027    1.1972 H   0  0  0  0  0  0  0  0  0  0  0  0
    7.3697   -1.8816   -0.5830 H   0  0  0  0  0  0  0  0  0  0  0  0
    6.3170   -3.1574    0.0434 H   0  0  0  0  0  0  0  0  0  0  0  0
    5.9637   -2.4095   -1.5246 H   0  0  0  0  0  0  0  0  0  0  0  0
    5.0041    0.9569   -0.0396 H   0  0  0  0  0  0  0  0  0  0  0  0
    6.5882    0.4954   -0.6657 H   0  0  0  0  0  0  0  0  0  0  0  0
    5.1251    0.0745   -1.5716 H   0  0  0  0  0  0  0  0  0  0  0  0
  1  2  1  0
  2  3  1  0
  3  4  1  0
  4  5  2  0
  5  6  1  0
  6  7  2  0
  6  8  1  0
  8  9  1  0
  9 10  2  0
 10 11  1  0
 11 12  2  0
 12 13  1  0
 13 14  1  0
 14 15  1  0
 15 16  1  0
 16 17  2  0
 14 18  1  0
 18 19  1  0
 18 20  1  0
 18 21  1  0
 21 22  1  0
 11 23  1  0
 10 24  1  0
 24 25  2  0
 24 26  1  0
 26 27  1  0
 27 28  1  0
 27 29  1  0
 17  4  1  0
 17  9  1  0
 16 12  1  0
  1 30  1  0
  1 31  1  0
  1 32  1  0
  2 33  1  0
  2 34  1  0
  3 35  1  0
  3 36  1  0
  5 37  1  0
 13 38  1  0
 13 39  1  0
 14 40  1  0
 19 41  1  0
 19 42  1  0
 19 43  1  0
 20 44  1  0
 20 45  1  0
 20 46  1  0
 22 47  1  0
 23 48  1  0
 26 49  1  0
 26 50  1  0
 27 51  1  0
 28 52  1  0
 28 53  1  0
 28 54  1  0
 29 55  1  0
 29 56  1  0
 29 57  1  0
M  END
>  <Name>  (496) 
Furomammea D

>  <PubChem ID>  (496) 
131751483

>  <CDB ID>  (496) 
CDB0496

>  <Smiles>  (496) 
CCCC1=CC(=O)OC2=C(C(=C3CC(OC3=C12)C(C)(C)OO)O)C(=O)CC(C)C

>  <Chemical class>  (496) 
5,7-Dioxygenated Coumarins

>  <Natural source>  (496) 
Mammea americana

>  <Molecular Formula>  (496) 
C22H28O7

>  <InChI-Key>  (496) 
KTMGXZPJSXTUNM-OAHLLOKOSA-N

>  <Total Molweight>  (496) 
404.457

>  <cLogP>  (496) 
3.7028

>  <cLogS>  (496) 
-4.777

>  <H-Acceptors>  (496) 
7

>  <H-Donors>  (496) 
2

>  <Rotatable Bonds>  (496) 
7

>  <Polar Surface Area>  (496) 
102.29

$$$$
CDB0497
     RDKit          3D

 53 56  0  0  0  0  0  0  0  0999 V2000
   -4.7995    2.7093    0.2389 C   0  0  0  0  0  0  0  0  0  0  0  0
   -4.5409    1.8208   -0.9710 C   0  0  0  0  0  0  0  0  0  0  0  0
   -3.3082    0.9133   -0.8076 C   0  0  0  0  0  0  0  0  0  0  0  0
   -1.9159    1.5246   -0.8539 C   0  0  0  0  0  0  0  0  0  0  0  0
   -1.7143    2.8027   -1.2146 C   0  0  0  0  0  0  0  0  0  0  0  0
   -0.4089    3.4628   -1.2279 C   0  0  0  0  0  0  0  0  0  0  0  0
   -0.2850    4.6264   -1.5881 O   0  0  0  0  0  0  0  0  0  0  0  0
    0.6576    2.7116   -0.7868 O   0  0  0  0  0  0  0  0  0  0  0  0
    0.5282    1.3443   -0.4402 C   0  0  0  0  0  0  0  0  0  0  0  0
   -0.7212    0.7006   -0.4937 C   0  0  0  0  0  0  0  0  0  0  0  0
   -0.7275   -0.6818   -0.1976 C   0  0  0  0  0  0  0  0  0  0  0  0
    0.4629   -1.3659    0.1268 C   0  0  0  0  0  0  0  0  0  0  0  0
    0.4161   -2.8058    0.3862 C   0  0  0  0  0  0  0  0  0  0  0  0
   -0.7739   -3.4021    0.4842 C   0  0  0  0  0  0  0  0  0  0  0  0
   -2.0640   -2.6503    0.3129 C   0  0  0  0  0  0  0  0  0  0  0  0
   -1.9147   -1.3609   -0.3095 O   0  0  0  0  0  0  0  0  0  0  0  0
   -2.7410   -2.4420    1.6725 C   0  0  0  0  0  0  0  0  0  0  0  0
   -2.9964   -3.4463   -0.6084 C   0  0  0  0  0  0  0  0  0  0  0  0
    1.6855   -0.6708    0.1645 C   0  0  0  0  0  0  0  0  0  0  0  0
    1.7304    0.7019   -0.0804 C   0  0  0  0  0  0  0  0  0  0  0  0
    3.0434    1.4459   -0.0146 C   0  0  0  0  0  0  0  0  0  0  0  0
    4.1659    0.6075    0.6140 C   0  0  0  0  0  0  0  0  0  0  0  0
    4.0539   -0.8125    0.0569 C   0  0  0  0  0  0  0  0  0  0  0  0
    2.8097   -1.3978    0.4675 O   0  0  0  0  0  0  0  0  0  0  0  0
    5.1473   -1.7490    0.5643 C   0  0  0  0  0  0  0  0  0  0  0  0
    5.5291    1.2561    0.3573 C   0  0  0  0  0  0  0  0  0  0  0  0
    2.9277    2.6433    0.7547 O   0  0  0  0  0  0  0  0  0  0  0  0
   -5.7107    3.2961    0.0844 H   0  0  0  0  0  0  0  0  0  0  0  0
   -3.9789    3.4083    0.4199 H   0  0  0  0  0  0  0  0  0  0  0  0
   -4.9382    2.1062    1.1421 H   0  0  0  0  0  0  0  0  0  0  0  0
   -4.4670    2.4270   -1.8805 H   0  0  0  0  0  0  0  0  0  0  0  0
   -5.4193    1.1769   -1.1063 H   0  0  0  0  0  0  0  0  0  0  0  0
   -3.4373    0.4001    0.1531 H   0  0  0  0  0  0  0  0  0  0  0  0
   -3.3674    0.1612   -1.6049 H   0  0  0  0  0  0  0  0  0  0  0  0
   -2.5197    3.4613   -1.5148 H   0  0  0  0  0  0  0  0  0  0  0  0
    1.3390   -3.3580    0.5259 H   0  0  0  0  0  0  0  0  0  0  0  0
   -0.8218   -4.4619    0.7183 H   0  0  0  0  0  0  0  0  0  0  0  0
   -2.9488   -3.3928    2.1753 H   0  0  0  0  0  0  0  0  0  0  0  0
   -2.1149   -1.8334    2.3358 H   0  0  0  0  0  0  0  0  0  0  0  0
   -3.6859   -1.8981    1.5580 H   0  0  0  0  0  0  0  0  0  0  0  0
   -3.2264   -4.4380   -0.2035 H   0  0  0  0  0  0  0  0  0  0  0  0
   -2.5488   -3.5749   -1.6015 H   0  0  0  0  0  0  0  0  0  0  0  0
   -3.9407   -2.9111   -0.7642 H   0  0  0  0  0  0  0  0  0  0  0  0
    3.3236    1.7287   -1.0379 H   0  0  0  0  0  0  0  0  0  0  0  0
    4.0099    0.5807    1.7025 H   0  0  0  0  0  0  0  0  0  0  0  0
    4.0922   -0.8103   -1.0413 H   0  0  0  0  0  0  0  0  0  0  0  0
    5.1706   -1.7664    1.6595 H   0  0  0  0  0  0  0  0  0  0  0  0
    6.1352   -1.4614    0.1941 H   0  0  0  0  0  0  0  0  0  0  0  0
    4.9497   -2.7766    0.2387 H   0  0  0  0  0  0  0  0  0  0  0  0
    5.7808    1.2396   -0.7085 H   0  0  0  0  0  0  0  0  0  0  0  0
    5.5394    2.2992    0.6906 H   0  0  0  0  0  0  0  0  0  0  0  0
    6.3232    0.7380    0.9036 H   0  0  0  0  0  0  0  0  0  0  0  0
    2.2155    3.1737    0.3549 H   0  0  0  0  0  0  0  0  0  0  0  0
  1  2  1  0
  2  3  1  0
  3  4  1  0
  4  5  2  0
  5  6  1  0
  6  7  2  0
  6  8  1  0
  8  9  1  0
  9 10  2  0
 10 11  1  0
 11 12  2  0
 12 13  1  0
 13 14  2  0
 14 15  1  0
 15 16  1  0
 15 17  1  0
 15 18  1  0
 12 19  1  0
 19 20  2  0
 20 21  1  0
 21 22  1  0
 22 23  1  0
 23 24  1  0
 23 25  1  0
 22 26  1  0
 21 27  1  0
 10  4  1  0
 20  9  1  0
 16 11  1  0
 24 19  1  0
  1 28  1  0
  1 29  1  0
  1 30  1  0
  2 31  1  0
  2 32  1  0
  3 33  1  0
  3 34  1  0
  5 35  1  0
 13 36  1  0
 14 37  1  0
 17 38  1  0
 17 39  1  0
 17 40  1  0
 18 41  1  0
 18 42  1  0
 18 43  1  0
 21 44  1  0
 22 45  1  0
 23 46  1  0
 25 47  1  0
 25 48  1  0
 25 49  1  0
 26 50  1  0
 26 51  1  0
 26 52  1  0
 27 53  1  0
M  END
>  <Name>  (497) 
Calanolide B

>  <PubChem ID>  (497) 
65008

>  <CDB ID>  (497) 
CDB0497

>  <Smiles>  (497) 
CCCC1=CC(=O)OC2=C1C3=C(C=CC(O3)(C)C)C4=C2C(C(C(O4)C)C)O

>  <Chemical class>  (497) 
5,7-Dioxygenated Coumarins

>  <Natural source>  (497) 
Calophyllum lanigerum

>  <Molecular Formula>  (497) 
C22H26O5

>  <InChI-Key>  (497) 
NIDRYBLTWYFCFV-UHFFFAOYSA-N

>  <Total Molweight>  (497) 
370.443

>  <cLogP>  (497) 
3.9469

>  <cLogS>  (497) 
-4.525

>  <H-Acceptors>  (497) 
5

>  <H-Donors>  (497) 
1

>  <Rotatable Bonds>  (497) 
2

>  <Polar Surface Area>  (497) 
64.99

$$$$
CDB0498
     RDKit          3D

 53 56  0  0  0  0  0  0  0  0999 V2000
   -4.7995    2.7093    0.2389 C   0  0  0  0  0  0  0  0  0  0  0  0
   -4.5409    1.8208   -0.9710 C   0  0  0  0  0  0  0  0  0  0  0  0
   -3.3082    0.9133   -0.8076 C   0  0  0  0  0  0  0  0  0  0  0  0
   -1.9159    1.5246   -0.8539 C   0  0  0  0  0  0  0  0  0  0  0  0
   -1.7143    2.8027   -1.2146 C   0  0  0  0  0  0  0  0  0  0  0  0
   -0.4089    3.4628   -1.2279 C   0  0  0  0  0  0  0  0  0  0  0  0
   -0.2850    4.6264   -1.5881 O   0  0  0  0  0  0  0  0  0  0  0  0
    0.6576    2.7116   -0.7868 O   0  0  0  0  0  0  0  0  0  0  0  0
    0.5282    1.3443   -0.4402 C   0  0  0  0  0  0  0  0  0  0  0  0
   -0.7212    0.7006   -0.4937 C   0  0  0  0  0  0  0  0  0  0  0  0
   -0.7275   -0.6818   -0.1976 C   0  0  0  0  0  0  0  0  0  0  0  0
    0.4629   -1.3659    0.1268 C   0  0  0  0  0  0  0  0  0  0  0  0
    0.4161   -2.8058    0.3862 C   0  0  0  0  0  0  0  0  0  0  0  0
   -0.7739   -3.4021    0.4842 C   0  0  0  0  0  0  0  0  0  0  0  0
   -2.0640   -2.6503    0.3129 C   0  0  0  0  0  0  0  0  0  0  0  0
   -1.9147   -1.3609   -0.3095 O   0  0  0  0  0  0  0  0  0  0  0  0
   -2.7410   -2.4420    1.6725 C   0  0  0  0  0  0  0  0  0  0  0  0
   -2.9964   -3.4463   -0.6084 C   0  0  0  0  0  0  0  0  0  0  0  0
    1.6855   -0.6708    0.1645 C   0  0  0  0  0  0  0  0  0  0  0  0
    1.7304    0.7019   -0.0804 C   0  0  0  0  0  0  0  0  0  0  0  0
    3.0434    1.4459   -0.0146 C   0  0  0  0  0  0  0  0  0  0  0  0
    4.1659    0.6075    0.6140 C   0  0  0  0  0  0  0  0  0  0  0  0
    4.0539   -0.8125    0.0569 C   0  0  0  0  0  0  0  0  0  0  0  0
    2.8097   -1.3978    0.4675 O   0  0  0  0  0  0  0  0  0  0  0  0
    5.1473   -1.7490    0.5643 C   0  0  0  0  0  0  0  0  0  0  0  0
    5.5291    1.2561    0.3573 C   0  0  0  0  0  0  0  0  0  0  0  0
    2.9277    2.6433    0.7547 O   0  0  0  0  0  0  0  0  0  0  0  0
   -5.7107    3.2961    0.0844 H   0  0  0  0  0  0  0  0  0  0  0  0
   -3.9789    3.4083    0.4199 H   0  0  0  0  0  0  0  0  0  0  0  0
   -4.9382    2.1062    1.1421 H   0  0  0  0  0  0  0  0  0  0  0  0
   -4.4670    2.4270   -1.8805 H   0  0  0  0  0  0  0  0  0  0  0  0
   -5.4193    1.1769   -1.1063 H   0  0  0  0  0  0  0  0  0  0  0  0
   -3.4373    0.4001    0.1531 H   0  0  0  0  0  0  0  0  0  0  0  0
   -3.3674    0.1612   -1.6049 H   0  0  0  0  0  0  0  0  0  0  0  0
   -2.5197    3.4613   -1.5148 H   0  0  0  0  0  0  0  0  0  0  0  0
    1.3390   -3.3580    0.5259 H   0  0  0  0  0  0  0  0  0  0  0  0
   -0.8218   -4.4619    0.7183 H   0  0  0  0  0  0  0  0  0  0  0  0
   -2.9488   -3.3928    2.1753 H   0  0  0  0  0  0  0  0  0  0  0  0
   -2.1149   -1.8334    2.3358 H   0  0  0  0  0  0  0  0  0  0  0  0
   -3.6859   -1.8981    1.5580 H   0  0  0  0  0  0  0  0  0  0  0  0
   -3.2264   -4.4380   -0.2035 H   0  0  0  0  0  0  0  0  0  0  0  0
   -2.5488   -3.5749   -1.6015 H   0  0  0  0  0  0  0  0  0  0  0  0
   -3.9407   -2.9111   -0.7642 H   0  0  0  0  0  0  0  0  0  0  0  0
    3.3236    1.7287   -1.0379 H   0  0  0  0  0  0  0  0  0  0  0  0
    4.0099    0.5807    1.7025 H   0  0  0  0  0  0  0  0  0  0  0  0
    4.0922   -0.8103   -1.0413 H   0  0  0  0  0  0  0  0  0  0  0  0
    5.1706   -1.7664    1.6595 H   0  0  0  0  0  0  0  0  0  0  0  0
    6.1352   -1.4614    0.1941 H   0  0  0  0  0  0  0  0  0  0  0  0
    4.9497   -2.7766    0.2387 H   0  0  0  0  0  0  0  0  0  0  0  0
    5.7808    1.2396   -0.7085 H   0  0  0  0  0  0  0  0  0  0  0  0
    5.5394    2.2992    0.6906 H   0  0  0  0  0  0  0  0  0  0  0  0
    6.3232    0.7380    0.9036 H   0  0  0  0  0  0  0  0  0  0  0  0
    2.2155    3.1737    0.3549 H   0  0  0  0  0  0  0  0  0  0  0  0
  1  2  1  0
  2  3  1  0
  3  4  1  0
  4  5  2  0
  5  6  1  0
  6  7  2  0
  6  8  1  0
  8  9  1  0
  9 10  2  0
 10 11  1  0
 11 12  2  0
 12 13  1  0
 13 14  2  0
 14 15  1  0
 15 16  1  0
 15 17  1  0
 15 18  1  0
 12 19  1  0
 19 20  2  0
 20 21  1  0
 21 22  1  0
 22 23  1  0
 23 24  1  0
 23 25  1  0
 22 26  1  0
 21 27  1  0
 10  4  1  0
 20  9  1  0
 16 11  1  0
 24 19  1  0
  1 28  1  0
  1 29  1  0
  1 30  1  0
  2 31  1  0
  2 32  1  0
  3 33  1  0
  3 34  1  0
  5 35  1  0
 13 36  1  0
 14 37  1  0
 17 38  1  0
 17 39  1  0
 17 40  1  0
 18 41  1  0
 18 42  1  0
 18 43  1  0
 21 44  1  0
 22 45  1  0
 23 46  1  0
 25 47  1  0
 25 48  1  0
 25 49  1  0
 26 50  1  0
 26 51  1  0
 26 52  1  0
 27 53  1  0
M  END
>  <Name>  (498) 
Calanolide A

>  <PubChem ID>  (498) 
64972

>  <CDB ID>  (498) 
CDB0498

>  <Smiles>  (498) 
CCCC1=CC(=O)OC2=C1C3=C(C=CC(O3)(C)C)C4=C2C(C(C(O4)C)C)O

>  <Chemical class>  (498) 
5,7-Dioxygenated Coumarins

>  <Natural source>  (498) 
Calophyllum lanigerum

>  <Molecular Formula>  (498) 
C22H26O5

>  <InChI-Key>  (498) 
NIDRYBLTWYFCFV-UHFFFAOYSA-N

>  <Total Molweight>  (498) 
370.443

>  <cLogP>  (498) 
3.9469

>  <cLogS>  (498) 
-4.525

>  <H-Acceptors>  (498) 
5

>  <H-Donors>  (498) 
1

>  <Rotatable Bonds>  (498) 
2

>  <Polar Surface Area>  (498) 
64.99

$$$$
CDB0499
     RDKit          3D

 53 56  0  0  0  0  0  0  0  0999 V2000
   -4.7995    2.7093    0.2389 C   0  0  0  0  0  0  0  0  0  0  0  0
   -4.5409    1.8208   -0.9710 C   0  0  0  0  0  0  0  0  0  0  0  0
   -3.3082    0.9133   -0.8076 C   0  0  0  0  0  0  0  0  0  0  0  0
   -1.9159    1.5246   -0.8539 C   0  0  0  0  0  0  0  0  0  0  0  0
   -1.7143    2.8027   -1.2146 C   0  0  0  0  0  0  0  0  0  0  0  0
   -0.4089    3.4628   -1.2279 C   0  0  0  0  0  0  0  0  0  0  0  0
   -0.2850    4.6264   -1.5881 O   0  0  0  0  0  0  0  0  0  0  0  0
    0.6576    2.7116   -0.7868 O   0  0  0  0  0  0  0  0  0  0  0  0
    0.5282    1.3443   -0.4402 C   0  0  0  0  0  0  0  0  0  0  0  0
   -0.7212    0.7006   -0.4937 C   0  0  0  0  0  0  0  0  0  0  0  0
   -0.7275   -0.6818   -0.1976 C   0  0  0  0  0  0  0  0  0  0  0  0
    0.4629   -1.3659    0.1268 C   0  0  0  0  0  0  0  0  0  0  0  0
    0.4161   -2.8058    0.3862 C   0  0  0  0  0  0  0  0  0  0  0  0
   -0.7739   -3.4021    0.4842 C   0  0  0  0  0  0  0  0  0  0  0  0
   -2.0640   -2.6503    0.3129 C   0  0  0  0  0  0  0  0  0  0  0  0
   -1.9147   -1.3609   -0.3095 O   0  0  0  0  0  0  0  0  0  0  0  0
   -2.7410   -2.4420    1.6725 C   0  0  0  0  0  0  0  0  0  0  0  0
   -2.9964   -3.4463   -0.6084 C   0  0  0  0  0  0  0  0  0  0  0  0
    1.6855   -0.6708    0.1645 C   0  0  0  0  0  0  0  0  0  0  0  0
    1.7304    0.7019   -0.0804 C   0  0  0  0  0  0  0  0  0  0  0  0
    3.0434    1.4459   -0.0146 C   0  0  0  0  0  0  0  0  0  0  0  0
    4.1659    0.6075    0.6140 C   0  0  0  0  0  0  0  0  0  0  0  0
    4.0539   -0.8125    0.0569 C   0  0  0  0  0  0  0  0  0  0  0  0
    2.8097   -1.3978    0.4675 O   0  0  0  0  0  0  0  0  0  0  0  0
    5.1473   -1.7490    0.5643 C   0  0  0  0  0  0  0  0  0  0  0  0
    5.5291    1.2561    0.3573 C   0  0  0  0  0  0  0  0  0  0  0  0
    2.9277    2.6433    0.7547 O   0  0  0  0  0  0  0  0  0  0  0  0
   -5.7107    3.2961    0.0844 H   0  0  0  0  0  0  0  0  0  0  0  0
   -3.9789    3.4083    0.4199 H   0  0  0  0  0  0  0  0  0  0  0  0
   -4.9382    2.1062    1.1421 H   0  0  0  0  0  0  0  0  0  0  0  0
   -4.4670    2.4270   -1.8805 H   0  0  0  0  0  0  0  0  0  0  0  0
   -5.4193    1.1769   -1.1063 H   0  0  0  0  0  0  0  0  0  0  0  0
   -3.4373    0.4001    0.1531 H   0  0  0  0  0  0  0  0  0  0  0  0
   -3.3674    0.1612   -1.6049 H   0  0  0  0  0  0  0  0  0  0  0  0
   -2.5197    3.4613   -1.5148 H   0  0  0  0  0  0  0  0  0  0  0  0
    1.3390   -3.3580    0.5259 H   0  0  0  0  0  0  0  0  0  0  0  0
   -0.8218   -4.4619    0.7183 H   0  0  0  0  0  0  0  0  0  0  0  0
   -2.9488   -3.3928    2.1753 H   0  0  0  0  0  0  0  0  0  0  0  0
   -2.1149   -1.8334    2.3358 H   0  0  0  0  0  0  0  0  0  0  0  0
   -3.6859   -1.8981    1.5580 H   0  0  0  0  0  0  0  0  0  0  0  0
   -3.2264   -4.4380   -0.2035 H   0  0  0  0  0  0  0  0  0  0  0  0
   -2.5488   -3.5749   -1.6015 H   0  0  0  0  0  0  0  0  0  0  0  0
   -3.9407   -2.9111   -0.7642 H   0  0  0  0  0  0  0  0  0  0  0  0
    3.3236    1.7287   -1.0379 H   0  0  0  0  0  0  0  0  0  0  0  0
    4.0099    0.5807    1.7025 H   0  0  0  0  0  0  0  0  0  0  0  0
    4.0922   -0.8103   -1.0413 H   0  0  0  0  0  0  0  0  0  0  0  0
    5.1706   -1.7664    1.6595 H   0  0  0  0  0  0  0  0  0  0  0  0
    6.1352   -1.4614    0.1941 H   0  0  0  0  0  0  0  0  0  0  0  0
    4.9497   -2.7766    0.2387 H   0  0  0  0  0  0  0  0  0  0  0  0
    5.7808    1.2396   -0.7085 H   0  0  0  0  0  0  0  0  0  0  0  0
    5.5394    2.2992    0.6906 H   0  0  0  0  0  0  0  0  0  0  0  0
    6.3232    0.7380    0.9036 H   0  0  0  0  0  0  0  0  0  0  0  0
    2.2155    3.1737    0.3549 H   0  0  0  0  0  0  0  0  0  0  0  0
  1  2  1  0
  2  3  1  0
  3  4  1  0
  4  5  2  0
  5  6  1  0
  6  7  2  0
  6  8  1  0
  8  9  1  0
  9 10  2  0
 10 11  1  0
 11 12  2  0
 12 13  1  0
 13 14  2  0
 14 15  1  0
 15 16  1  0
 15 17  1  0
 15 18  1  0
 12 19  1  0
 19 20  2  0
 20 21  1  0
 21 22  1  0
 22 23  1  0
 23 24  1  0
 23 25  1  0
 22 26  1  0
 21 27  1  0
 10  4  1  0
 20  9  1  0
 16 11  1  0
 24 19  1  0
  1 28  1  0
  1 29  1  0
  1 30  1  0
  2 31  1  0
  2 32  1  0
  3 33  1  0
  3 34  1  0
  5 35  1  0
 13 36  1  0
 14 37  1  0
 17 38  1  0
 17 39  1  0
 17 40  1  0
 18 41  1  0
 18 42  1  0
 18 43  1  0
 21 44  1  0
 22 45  1  0
 23 46  1  0
 25 47  1  0
 25 48  1  0
 25 49  1  0
 26 50  1  0
 26 51  1  0
 26 52  1  0
 27 53  1  0
M  END
>  <Name>  (499) 
Calanolide F

>  <PubChem ID>  (499) 
122843

>  <CDB ID>  (499) 
CDB0499

>  <Smiles>  (499) 
CCCC1=CC(=O)OC2=C1C3=C(C=CC(O3)(C)C)C4=C2C(C(C(O4)C)C)O

>  <Chemical class>  (499) 
5,7-Dioxygenated Coumarins

>  <Natural source>  (499) 
Calophyllum teysmannii var. inophylloide

>  <Molecular Formula>  (499) 
C22H26O5

>  <InChI-Key>  (499) 
NIDRYBLTWYFCFV-UHFFFAOYSA-N

>  <Total Molweight>  (499) 
370.443

>  <cLogP>  (499) 
3.9469

>  <cLogS>  (499) 
-4.525

>  <H-Acceptors>  (499) 
5

>  <H-Donors>  (499) 
1

>  <Rotatable Bonds>  (499) 
2

>  <Polar Surface Area>  (499) 
64.99

$$$$
CDB0500
     RDKit          3D

 53 56  0  0  0  0  0  0  0  0999 V2000
   -4.7995    2.7093    0.2389 C   0  0  0  0  0  0  0  0  0  0  0  0
   -4.5409    1.8208   -0.9710 C   0  0  0  0  0  0  0  0  0  0  0  0
   -3.3082    0.9133   -0.8076 C   0  0  0  0  0  0  0  0  0  0  0  0
   -1.9159    1.5246   -0.8539 C   0  0  0  0  0  0  0  0  0  0  0  0
   -1.7143    2.8027   -1.2146 C   0  0  0  0  0  0  0  0  0  0  0  0
   -0.4089    3.4628   -1.2279 C   0  0  0  0  0  0  0  0  0  0  0  0
   -0.2850    4.6264   -1.5881 O   0  0  0  0  0  0  0  0  0  0  0  0
    0.6576    2.7116   -0.7868 O   0  0  0  0  0  0  0  0  0  0  0  0
    0.5282    1.3443   -0.4402 C   0  0  0  0  0  0  0  0  0  0  0  0
   -0.7212    0.7006   -0.4937 C   0  0  0  0  0  0  0  0  0  0  0  0
   -0.7275   -0.6818   -0.1976 C   0  0  0  0  0  0  0  0  0  0  0  0
    0.4629   -1.3659    0.1268 C   0  0  0  0  0  0  0  0  0  0  0  0
    0.4161   -2.8058    0.3862 C   0  0  0  0  0  0  0  0  0  0  0  0
   -0.7739   -3.4021    0.4842 C   0  0  0  0  0  0  0  0  0  0  0  0
   -2.0640   -2.6503    0.3129 C   0  0  0  0  0  0  0  0  0  0  0  0
   -1.9147   -1.3609   -0.3095 O   0  0  0  0  0  0  0  0  0  0  0  0
   -2.7410   -2.4420    1.6725 C   0  0  0  0  0  0  0  0  0  0  0  0
   -2.9964   -3.4463   -0.6084 C   0  0  0  0  0  0  0  0  0  0  0  0
    1.6855   -0.6708    0.1645 C   0  0  0  0  0  0  0  0  0  0  0  0
    1.7304    0.7019   -0.0804 C   0  0  0  0  0  0  0  0  0  0  0  0
    3.0434    1.4459   -0.0146 C   0  0  0  0  0  0  0  0  0  0  0  0
    4.1659    0.6075    0.6140 C   0  0  0  0  0  0  0  0  0  0  0  0
    4.0539   -0.8125    0.0569 C   0  0  0  0  0  0  0  0  0  0  0  0
    2.8097   -1.3978    0.4675 O   0  0  0  0  0  0  0  0  0  0  0  0
    5.1473   -1.7490    0.5643 C   0  0  0  0  0  0  0  0  0  0  0  0
    5.5291    1.2561    0.3573 C   0  0  0  0  0  0  0  0  0  0  0  0
    2.9277    2.6433    0.7547 O   0  0  0  0  0  0  0  0  0  0  0  0
   -5.7107    3.2961    0.0844 H   0  0  0  0  0  0  0  0  0  0  0  0
   -3.9789    3.4083    0.4199 H   0  0  0  0  0  0  0  0  0  0  0  0
   -4.9382    2.1062    1.1421 H   0  0  0  0  0  0  0  0  0  0  0  0
   -4.4670    2.4270   -1.8805 H   0  0  0  0  0  0  0  0  0  0  0  0
   -5.4193    1.1769   -1.1063 H   0  0  0  0  0  0  0  0  0  0  0  0
   -3.4373    0.4001    0.1531 H   0  0  0  0  0  0  0  0  0  0  0  0
   -3.3674    0.1612   -1.6049 H   0  0  0  0  0  0  0  0  0  0  0  0
   -2.5197    3.4613   -1.5148 H   0  0  0  0  0  0  0  0  0  0  0  0
    1.3390   -3.3580    0.5259 H   0  0  0  0  0  0  0  0  0  0  0  0
   -0.8218   -4.4619    0.7183 H   0  0  0  0  0  0  0  0  0  0  0  0
   -2.9488   -3.3928    2.1753 H   0  0  0  0  0  0  0  0  0  0  0  0
   -2.1149   -1.8334    2.3358 H   0  0  0  0  0  0  0  0  0  0  0  0
   -3.6859   -1.8981    1.5580 H   0  0  0  0  0  0  0  0  0  0  0  0
   -3.2264   -4.4380   -0.2035 H   0  0  0  0  0  0  0  0  0  0  0  0
   -2.5488   -3.5749   -1.6015 H   0  0  0  0  0  0  0  0  0  0  0  0
   -3.9407   -2.9111   -0.7642 H   0  0  0  0  0  0  0  0  0  0  0  0
    3.3236    1.7287   -1.0379 H   0  0  0  0  0  0  0  0  0  0  0  0
    4.0099    0.5807    1.7025 H   0  0  0  0  0  0  0  0  0  0  0  0
    4.0922   -0.8103   -1.0413 H   0  0  0  0  0  0  0  0  0  0  0  0
    5.1706   -1.7664    1.6595 H   0  0  0  0  0  0  0  0  0  0  0  0
    6.1352   -1.4614    0.1941 H   0  0  0  0  0  0  0  0  0  0  0  0
    4.9497   -2.7766    0.2387 H   0  0  0  0  0  0  0  0  0  0  0  0
    5.7808    1.2396   -0.7085 H   0  0  0  0  0  0  0  0  0  0  0  0
    5.5394    2.2992    0.6906 H   0  0  0  0  0  0  0  0  0  0  0  0
    6.3232    0.7380    0.9036 H   0  0  0  0  0  0  0  0  0  0  0  0
    2.2155    3.1737    0.3549 H   0  0  0  0  0  0  0  0  0  0  0  0
  1  2  1  0
  2  3  1  0
  3  4  1  0
  4  5  2  0
  5  6  1  0
  6  7  2  0
  6  8  1  0
  8  9  1  0
  9 10  2  0
 10 11  1  0
 11 12  2  0
 12 13  1  0
 13 14  2  0
 14 15  1  0
 15 16  1  0
 15 17  1  0
 15 18  1  0
 12 19  1  0
 19 20  2  0
 20 21  1  0
 21 22  1  0
 22 23  1  0
 23 24  1  0
 23 25  1  0
 22 26  1  0
 21 27  1  0
 10  4  1  0
 20  9  1  0
 16 11  1  0
 24 19  1  0
  1 28  1  0
  1 29  1  0
  1 30  1  0
  2 31  1  0
  2 32  1  0
  3 33  1  0
  3 34  1  0
  5 35  1  0
 13 36  1  0
 14 37  1  0
 17 38  1  0
 17 39  1  0
 17 40  1  0
 18 41  1  0
 18 42  1  0
 18 43  1  0
 21 44  1  0
 22 45  1  0
 23 46  1  0
 25 47  1  0
 25 48  1  0
 25 49  1  0
 26 50  1  0
 26 51  1  0
 26 52  1  0
 27 53  1  0
M  END
>  <Name>  (500) 
Costatolide

>  <PubChem ID>  (500) 
461128

>  <CDB ID>  (500) 
CDB0500

>  <Smiles>  (500) 
CCCC1=CC(=O)OC2=C1C3=C(C=CC(O3)(C)C)C4=C2C(C(C(O4)C)C)O

>  <Chemical class>  (500) 
5,7-Dioxygenated Coumarins

>  <Natural source>  (500) 
Calophyllum costatum

>  <Molecular Formula>  (500) 
C22H26O5

>  <InChI-Key>  (500) 
NIDRYBLTWYFCFV-UHFFFAOYSA-N

>  <Total Molweight>  (500) 
370.443

>  <cLogP>  (500) 
3.9469

>  <cLogS>  (500) 
-4.525

>  <H-Acceptors>  (500) 
5

>  <H-Donors>  (500) 
1

>  <Rotatable Bonds>  (500) 
2

>  <Polar Surface Area>  (500) 
64.99

$$$$
CDB0501
     RDKit          3D

 53 56  0  0  0  0  0  0  0  0999 V2000
    4.4085   -0.7561   -2.1189 C   0  0  0  0  0  0  0  0  0  0  0  0
    3.9503    0.1407   -0.9767 C   0  0  0  0  0  0  0  0  0  0  0  0
    3.6551   -0.6295    0.3190 C   0  0  0  0  0  0  0  0  0  0  0  0
    2.4777   -1.5786    0.2337 C   0  0  0  0  0  0  0  0  0  0  0  0
    2.7321   -2.8934    0.1262 C   0  0  0  0  0  0  0  0  0  0  0  0
    1.7002   -3.9232    0.0082 C   0  0  0  0  0  0  0  0  0  0  0  0
    1.9934   -5.1090   -0.0801 O   0  0  0  0  0  0  0  0  0  0  0  0
    0.3992   -3.4745   -0.0133 O   0  0  0  0  0  0  0  0  0  0  0  0
    0.0617   -2.1052    0.1345 C   0  0  0  0  0  0  0  0  0  0  0  0
   -1.3138   -1.8105    0.1365 C   0  0  0  0  0  0  0  0  0  0  0  0
   -2.3317   -2.8476    0.0016 C   0  0  0  0  0  0  0  0  0  0  0  0
   -3.6107   -2.4747   -0.0912 C   0  0  0  0  0  0  0  0  0  0  0  0
   -4.0496   -1.0337   -0.0505 C   0  0  0  0  0  0  0  0  0  0  0  0
   -3.0237   -0.0955    0.3357 O   0  0  0  0  0  0  0  0  0  0  0  0
   -1.7097   -0.4839    0.2874 C   0  0  0  0  0  0  0  0  0  0  0  0
   -0.7544    0.5342    0.4511 C   0  0  0  0  0  0  0  0  0  0  0  0
   -1.2109    1.9680    0.6018 C   0  0  0  0  0  0  0  0  0  0  0  0
   -0.0667    2.9791    0.4918 C   0  0  0  0  0  0  0  0  0  0  0  0
    1.1153    2.3906    1.2667 C   0  0  0  0  0  0  0  0  0  0  0  0
    1.5665    1.1780    0.6532 O   0  0  0  0  0  0  0  0  0  0  0  0
    0.6181    0.2026    0.4752 C   0  0  0  0  0  0  0  0  0  0  0  0
    1.0608   -1.1262    0.2828 C   0  0  0  0  0  0  0  0  0  0  0  0
    2.3136    3.3330    1.3319 C   0  0  0  0  0  0  0  0  0  0  0  0
    0.2550    3.2828   -0.9775 C   0  0  0  0  0  0  0  0  0  0  0  0
   -1.8188    2.1225    1.8882 O   0  0  0  0  0  0  0  0  0  0  0  0
   -4.5580   -0.6055   -1.4316 C   0  0  0  0  0  0  0  0  0  0  0  0
   -5.1697   -0.8748    0.9845 C   0  0  0  0  0  0  0  0  0  0  0  0
    4.6875   -0.1472   -2.9849 H   0  0  0  0  0  0  0  0  0  0  0  0
    5.2812   -1.3493   -1.8280 H   0  0  0  0  0  0  0  0  0  0  0  0
    3.6142   -1.4388   -2.4354 H   0  0  0  0  0  0  0  0  0  0  0  0
    3.0768    0.7113   -1.3082 H   0  0  0  0  0  0  0  0  0  0  0  0
    4.7423    0.8707   -0.7700 H   0  0  0  0  0  0  0  0  0  0  0  0
    3.5306    0.0618    1.1592 H   0  0  0  0  0  0  0  0  0  0  0  0
    4.5634   -1.1899    0.5844 H   0  0  0  0  0  0  0  0  0  0  0  0
    3.7454   -3.2800    0.0980 H   0  0  0  0  0  0  0  0  0  0  0  0
   -2.0426   -3.8922   -0.0392 H   0  0  0  0  0  0  0  0  0  0  0  0
   -4.3762   -3.2360   -0.2189 H   0  0  0  0  0  0  0  0  0  0  0  0
   -1.9755    2.2038   -0.1486 H   0  0  0  0  0  0  0  0  0  0  0  0
   -0.3706    3.9198    0.9699 H   0  0  0  0  0  0  0  0  0  0  0  0
    0.8232    2.1674    2.3024 H   0  0  0  0  0  0  0  0  0  0  0  0
    2.0339    4.3072    1.7435 H   0  0  0  0  0  0  0  0  0  0  0  0
    3.0948    2.9006    1.9674 H   0  0  0  0  0  0  0  0  0  0  0  0
    2.7704    3.4763    0.3472 H   0  0  0  0  0  0  0  0  0  0  0  0
   -0.6357    3.6574   -1.4939 H   0  0  0  0  0  0  0  0  0  0  0  0
    0.6069    2.3999   -1.5200 H   0  0  0  0  0  0  0  0  0  0  0  0
    1.0229    4.0582   -1.0597 H   0  0  0  0  0  0  0  0  0  0  0  0
   -2.4869    1.4148    1.9550 H   0  0  0  0  0  0  0  0  0  0  0  0
   -4.8863    0.4404   -1.4192 H   0  0  0  0  0  0  0  0  0  0  0  0
   -3.7591   -0.6677   -2.1803 H   0  0  0  0  0  0  0  0  0  0  0  0
   -5.3947   -1.2260   -1.7706 H   0  0  0  0  0  0  0  0  0  0  0  0
   -6.0365   -1.5032    0.7522 H   0  0  0  0  0  0  0  0  0  0  0  0
   -5.5054    0.1675    1.0394 H   0  0  0  0  0  0  0  0  0  0  0  0
   -4.8136   -1.1363    1.9884 H   0  0  0  0  0  0  0  0  0  0  0  0
  1  2  1  0
  2  3  1  0
  3  4  1  0
  4  5  2  0
  5  6  1  0
  6  7  2  0
  6  8  1  0
  8  9  1  0
  9 10  2  0
 10 11  1  0
 11 12  2  0
 12 13  1  0
 13 14  1  0
 14 15  1  0
 15 16  2  0
 16 17  1  0
 17 18  1  0
 18 19  1  0
 19 20  1  0
 20 21  1  0
 21 22  2  0
 19 23  1  0
 18 24  1  0
 17 25  1  0
 13 26  1  0
 13 27  1  0
 22  4  1  0
 22  9  1  0
 15 10  1  0
 21 16  1  0
  1 28  1  0
  1 29  1  0
  1 30  1  0
  2 31  1  0
  2 32  1  0
  3 33  1  0
  3 34  1  0
  5 35  1  0
 11 36  1  0
 12 37  1  0
 17 38  1  0
 18 39  1  0
 19 40  1  0
 23 41  1  0
 23 42  1  0
 23 43  1  0
 24 44  1  0
 24 45  1  0
 24 46  1  0
 25 47  1  0
 26 48  1  0
 26 49  1  0
 26 50  1  0
 27 51  1  0
 27 52  1  0
 27 53  1  0
M  END
>  <Name>  (501) 
Pseudocalanolide C

>  <PubChem ID>  (501) 
11726636

>  <CDB ID>  (501) 
CDB0501

>  <Smiles>  (501) 
CCCC1=CC(=O)OC2=C3C=CC(OC3=C4C(C(C(OC4=C12)C)C)O)(C)C

>  <Chemical class>  (501) 
5,7-Dioxygenated Coumarins

>  <Natural source>  (501) 
Calophyllum lanigerum

>  <Molecular Formula>  (501) 
C22H26O5

>  <InChI-Key>  (501) 
XCJYGBQSIDIDLV-UHFFFAOYSA-N

>  <Total Molweight>  (501) 
370.443

>  <cLogP>  (501) 
3.9469

>  <cLogS>  (501) 
-4.525

>  <H-Acceptors>  (501) 
5

>  <H-Donors>  (501) 
1

>  <Rotatable Bonds>  (501) 
2

>  <Polar Surface Area>  (501) 
64.99

$$$$
CDB0502
     RDKit          3D

 51 54  0  0  0  0  0  0  0  0999 V2000
   -5.2755   -1.7426    0.7116 C   0  0  0  0  0  0  0  0  0  0  0  0
   -4.8191   -1.1374   -0.6096 C   0  0  0  0  0  0  0  0  0  0  0  0
   -3.3840   -0.5820   -0.5616 C   0  0  0  0  0  0  0  0  0  0  0  0
   -2.2064   -1.5445   -0.5224 C   0  0  0  0  0  0  0  0  0  0  0  0
   -2.3690   -2.8690   -0.6780 C   0  0  0  0  0  0  0  0  0  0  0  0
   -1.2876   -3.8535   -0.6083 C   0  0  0  0  0  0  0  0  0  0  0  0
   -1.5049   -5.0473   -0.7728 O   0  0  0  0  0  0  0  0  0  0  0  0
   -0.0366   -3.3567   -0.3277 O   0  0  0  0  0  0  0  0  0  0  0  0
    0.2202   -1.9695   -0.2031 C   0  0  0  0  0  0  0  0  0  0  0  0
    1.5641   -1.6136    0.0219 C   0  0  0  0  0  0  0  0  0  0  0  0
    2.6098   -2.6245    0.1703 C   0  0  0  0  0  0  0  0  0  0  0  0
    3.8808   -2.2204    0.2387 C   0  0  0  0  0  0  0  0  0  0  0  0
    4.2746   -0.7669    0.1911 C   0  0  0  0  0  0  0  0  0  0  0  0
    3.1789    0.1459    0.3757 O   0  0  0  0  0  0  0  0  0  0  0  0
    1.9011   -0.2605    0.1105 C   0  0  0  0  0  0  0  0  0  0  0  0
    0.9027    0.7172   -0.0278 C   0  0  0  0  0  0  0  0  0  0  0  0
    1.2306    2.1791   -0.0327 C   0  0  0  0  0  0  0  0  0  0  0  0
    2.3858    2.5886    0.0379 O   0  0  0  0  0  0  0  0  0  0  0  0
    0.0744    3.1482   -0.2096 C   0  0  0  0  0  0  0  0  0  0  0  0
   -1.1650    2.4883    0.3785 C   0  0  0  0  0  0  0  0  0  0  0  0
   -1.4237    1.2830   -0.3528 O   0  0  0  0  0  0  0  0  0  0  0  0
   -0.4432    0.3316   -0.2146 C   0  0  0  0  0  0  0  0  0  0  0  0
   -0.8176   -1.0294   -0.3155 C   0  0  0  0  0  0  0  0  0  0  0  0
   -2.4234    3.3422    0.2492 C   0  0  0  0  0  0  0  0  0  0  0  0
    0.3964    4.4949    0.4358 C   0  0  0  0  0  0  0  0  0  0  0  0
    4.9285   -0.4424   -1.1566 C   0  0  0  0  0  0  0  0  0  0  0  0
    5.2604   -0.4710    1.3276 C   0  0  0  0  0  0  0  0  0  0  0  0
   -4.6659   -2.6011    1.0048 H   0  0  0  0  0  0  0  0  0  0  0  0
   -5.2279   -1.0013    1.5160 H   0  0  0  0  0  0  0  0  0  0  0  0
   -6.3132   -2.0815    0.6293 H   0  0  0  0  0  0  0  0  0  0  0  0
   -5.4956   -0.3063   -0.8468 H   0  0  0  0  0  0  0  0  0  0  0  0
   -4.9345   -1.8631   -1.4221 H   0  0  0  0  0  0  0  0  0  0  0  0
   -3.3398    0.0655    0.3226 H   0  0  0  0  0  0  0  0  0  0  0  0
   -3.2662    0.0495   -1.4518 H   0  0  0  0  0  0  0  0  0  0  0  0
   -3.3348   -3.3248   -0.8583 H   0  0  0  0  0  0  0  0  0  0  0  0
    2.3520   -3.6777    0.1979 H   0  0  0  0  0  0  0  0  0  0  0  0
    4.6728   -2.9609    0.3136 H   0  0  0  0  0  0  0  0  0  0  0  0
   -0.0449    3.2872   -1.2924 H   0  0  0  0  0  0  0  0  0  0  0  0
   -1.0284    2.2404    1.4411 H   0  0  0  0  0  0  0  0  0  0  0  0
   -2.3706    4.2431    0.8665 H   0  0  0  0  0  0  0  0  0  0  0  0
   -2.5924    3.6360   -0.7927 H   0  0  0  0  0  0  0  0  0  0  0  0
   -3.3049    2.7700    0.5598 H   0  0  0  0  0  0  0  0  0  0  0  0
    1.3286    4.9108    0.0378 H   0  0  0  0  0  0  0  0  0  0  0  0
   -0.3900    5.2303    0.2414 H   0  0  0  0  0  0  0  0  0  0  0  0
    0.5170    4.3954    1.5202 H   0  0  0  0  0  0  0  0  0  0  0  0
    4.2276   -0.6062   -1.9839 H   0  0  0  0  0  0  0  0  0  0  0  0
    5.8196   -1.0539   -1.3365 H   0  0  0  0  0  0  0  0  0  0  0  0
    5.2184    0.6138   -1.2044 H   0  0  0  0  0  0  0  0  0  0  0  0
    4.7987   -0.6591    2.3045 H   0  0  0  0  0  0  0  0  0  0  0  0
    6.1683   -1.0796    1.2531 H   0  0  0  0  0  0  0  0  0  0  0  0
    5.5536    0.5856    1.3245 H   0  0  0  0  0  0  0  0  0  0  0  0
  1  2  1  0
  2  3  1  0
  3  4  1  0
  4  5  2  0
  5  6  1  0
  6  7  2  0
  6  8  1  0
  8  9  1  0
  9 10  2  0
 10 11  1  0
 11 12  2  0
 12 13  1  0
 13 14  1  0
 14 15  1  0
 15 16  2  0
 16 17  1  0
 17 18  2  0
 17 19  1  0
 19 20  1  0
 20 21  1  0
 21 22  1  0
 22 23  2  0
 20 24  1  0
 19 25  1  0
 13 26  1  0
 13 27  1  0
 23  4  1  0
 23  9  1  0
 15 10  1  0
 22 16  1  0
  1 28  1  0
  1 29  1  0
  1 30  1  0
  2 31  1  0
  2 32  1  0
  3 33  1  0
  3 34  1  0
  5 35  1  0
 11 36  1  0
 12 37  1  0
 19 38  1  0
 20 39  1  0
 24 40  1  0
 24 41  1  0
 24 42  1  0
 25 43  1  0
 25 44  1  0
 25 45  1  0
 26 46  1  0
 26 47  1  0
 26 48  1  0
 27 49  1  0
 27 50  1  0
 27 51  1  0
M  END
>  <Name>  (502) 
Pseudocalanolide D

>  <PubChem ID>  (502) 
11726517

>  <CDB ID>  (502) 
CDB0502

>  <Smiles>  (502) 
CCCC1=CC(=O)OC2=C3C=CC(OC3=C4C(=O)C(C(OC4=C12)C)C)(C)C

>  <Chemical class>  (502) 
5,7-Dioxygenated Coumarins

>  <Natural source>  (502) 
Calophyllum lanigerum

>  <Molecular Formula>  (502) 
C22H24O5

>  <InChI-Key>  (502) 
QOFDITUHNAYYJC-UHFFFAOYSA-N

>  <Total Molweight>  (502) 
368.428

>  <cLogP>  (502) 
4.1221

>  <cLogS>  (502) 
-5.254

>  <H-Acceptors>  (502) 
5

>  <H-Donors>  (502) 
0

>  <Rotatable Bonds>  (502) 
2

>  <Polar Surface Area>  (502) 
61.83

$$$$
CDB0503
     RDKit          3D

 51 54  0  0  0  0  0  0  0  0999 V2000
   -5.2755   -1.7426    0.7116 C   0  0  0  0  0  0  0  0  0  0  0  0
   -4.8191   -1.1374   -0.6096 C   0  0  0  0  0  0  0  0  0  0  0  0
   -3.3840   -0.5820   -0.5616 C   0  0  0  0  0  0  0  0  0  0  0  0
   -2.2064   -1.5445   -0.5224 C   0  0  0  0  0  0  0  0  0  0  0  0
   -2.3690   -2.8690   -0.6780 C   0  0  0  0  0  0  0  0  0  0  0  0
   -1.2876   -3.8535   -0.6083 C   0  0  0  0  0  0  0  0  0  0  0  0
   -1.5049   -5.0473   -0.7728 O   0  0  0  0  0  0  0  0  0  0  0  0
   -0.0366   -3.3567   -0.3277 O   0  0  0  0  0  0  0  0  0  0  0  0
    0.2202   -1.9695   -0.2031 C   0  0  0  0  0  0  0  0  0  0  0  0
    1.5641   -1.6136    0.0219 C   0  0  0  0  0  0  0  0  0  0  0  0
    2.6098   -2.6245    0.1703 C   0  0  0  0  0  0  0  0  0  0  0  0
    3.8808   -2.2204    0.2387 C   0  0  0  0  0  0  0  0  0  0  0  0
    4.2746   -0.7669    0.1911 C   0  0  0  0  0  0  0  0  0  0  0  0
    3.1789    0.1459    0.3757 O   0  0  0  0  0  0  0  0  0  0  0  0
    1.9011   -0.2605    0.1105 C   0  0  0  0  0  0  0  0  0  0  0  0
    0.9027    0.7172   -0.0278 C   0  0  0  0  0  0  0  0  0  0  0  0
    1.2306    2.1791   -0.0327 C   0  0  0  0  0  0  0  0  0  0  0  0
    2.3858    2.5886    0.0379 O   0  0  0  0  0  0  0  0  0  0  0  0
    0.0744    3.1482   -0.2096 C   0  0  0  0  0  0  0  0  0  0  0  0
   -1.1650    2.4883    0.3785 C   0  0  0  0  0  0  0  0  0  0  0  0
   -1.4237    1.2830   -0.3528 O   0  0  0  0  0  0  0  0  0  0  0  0
   -0.4432    0.3316   -0.2146 C   0  0  0  0  0  0  0  0  0  0  0  0
   -0.8176   -1.0294   -0.3155 C   0  0  0  0  0  0  0  0  0  0  0  0
   -2.4234    3.3422    0.2492 C   0  0  0  0  0  0  0  0  0  0  0  0
    0.3964    4.4949    0.4358 C   0  0  0  0  0  0  0  0  0  0  0  0
    4.9285   -0.4424   -1.1566 C   0  0  0  0  0  0  0  0  0  0  0  0
    5.2604   -0.4710    1.3276 C   0  0  0  0  0  0  0  0  0  0  0  0
   -4.6659   -2.6011    1.0048 H   0  0  0  0  0  0  0  0  0  0  0  0
   -5.2279   -1.0013    1.5160 H   0  0  0  0  0  0  0  0  0  0  0  0
   -6.3132   -2.0815    0.6293 H   0  0  0  0  0  0  0  0  0  0  0  0
   -5.4956   -0.3063   -0.8468 H   0  0  0  0  0  0  0  0  0  0  0  0
   -4.9345   -1.8631   -1.4221 H   0  0  0  0  0  0  0  0  0  0  0  0
   -3.3398    0.0655    0.3226 H   0  0  0  0  0  0  0  0  0  0  0  0
   -3.2662    0.0495   -1.4518 H   0  0  0  0  0  0  0  0  0  0  0  0
   -3.3348   -3.3248   -0.8583 H   0  0  0  0  0  0  0  0  0  0  0  0
    2.3520   -3.6777    0.1979 H   0  0  0  0  0  0  0  0  0  0  0  0
    4.6728   -2.9609    0.3136 H   0  0  0  0  0  0  0  0  0  0  0  0
   -0.0449    3.2872   -1.2924 H   0  0  0  0  0  0  0  0  0  0  0  0
   -1.0284    2.2404    1.4411 H   0  0  0  0  0  0  0  0  0  0  0  0
   -2.3706    4.2431    0.8665 H   0  0  0  0  0  0  0  0  0  0  0  0
   -2.5924    3.6360   -0.7927 H   0  0  0  0  0  0  0  0  0  0  0  0
   -3.3049    2.7700    0.5598 H   0  0  0  0  0  0  0  0  0  0  0  0
    1.3286    4.9108    0.0378 H   0  0  0  0  0  0  0  0  0  0  0  0
   -0.3900    5.2303    0.2414 H   0  0  0  0  0  0  0  0  0  0  0  0
    0.5170    4.3954    1.5202 H   0  0  0  0  0  0  0  0  0  0  0  0
    4.2276   -0.6062   -1.9839 H   0  0  0  0  0  0  0  0  0  0  0  0
    5.8196   -1.0539   -1.3365 H   0  0  0  0  0  0  0  0  0  0  0  0
    5.2184    0.6138   -1.2044 H   0  0  0  0  0  0  0  0  0  0  0  0
    4.7987   -0.6591    2.3045 H   0  0  0  0  0  0  0  0  0  0  0  0
    6.1683   -1.0796    1.2531 H   0  0  0  0  0  0  0  0  0  0  0  0
    5.5536    0.5856    1.3245 H   0  0  0  0  0  0  0  0  0  0  0  0
  1  2  1  0
  2  3  1  0
  3  4  1  0
  4  5  2  0
  5  6  1  0
  6  7  2  0
  6  8  1  0
  8  9  1  0
  9 10  2  0
 10 11  1  0
 11 12  2  0
 12 13  1  0
 13 14  1  0
 14 15  1  0
 15 16  2  0
 16 17  1  0
 17 18  2  0
 17 19  1  0
 19 20  1  0
 20 21  1  0
 21 22  1  0
 22 23  2  0
 20 24  1  0
 19 25  1  0
 13 26  1  0
 13 27  1  0
 23  4  1  0
 23  9  1  0
 15 10  1  0
 22 16  1  0
  1 28  1  0
  1 29  1  0
  1 30  1  0
  2 31  1  0
  2 32  1  0
  3 33  1  0
  3 34  1  0
  5 35  1  0
 11 36  1  0
 12 37  1  0
 19 38  1  0
 20 39  1  0
 24 40  1  0
 24 41  1  0
 24 42  1  0
 25 43  1  0
 25 44  1  0
 25 45  1  0
 26 46  1  0
 26 47  1  0
 26 48  1  0
 27 49  1  0
 27 50  1  0
 27 51  1  0
M  END
>  <Name>  (503) 
Tomentolide B

>  <PubChem ID>  (503) 
5321974

>  <CDB ID>  (503) 
CDB0503

>  <Smiles>  (503) 
CCCC1=CC(=O)OC2=C3C=CC(OC3=C4C(=O)C(C(OC4=C12)C)C)(C)C

>  <Chemical class>  (503) 
5,7-Dioxygenated Coumarins

>  <Natural source>  (503) 
Calophyllum tomentosum

>  <Molecular Formula>  (503) 
C22H24O5

>  <InChI-Key>  (503) 
QOFDITUHNAYYJC-UHFFFAOYSA-N

>  <Total Molweight>  (503) 
368.428

>  <cLogP>  (503) 
4.1221

>  <cLogS>  (503) 
-5.254

>  <H-Acceptors>  (503) 
5

>  <H-Donors>  (503) 
0

>  <Rotatable Bonds>  (503) 
2

>  <Polar Surface Area>  (503) 
61.83

$$$$
CDB0504
     RDKit          3D

 56 57  0  0  0  0  0  0  0  0999 V2000
   -4.0363   -2.4526   -0.9253 C   0  0  0  0  0  0  0  0  0  0  0  0
   -3.7132   -3.6068    0.0152 C   0  0  0  0  0  0  0  0  0  0  0  0
   -2.2598   -3.5719    0.5194 C   0  0  0  0  0  0  0  0  0  0  0  0
   -1.9429   -4.8437    1.3051 C   0  0  0  0  0  0  0  0  0  0  0  0
   -2.0463   -2.3650    1.4289 C   0  0  0  0  0  0  0  0  0  0  0  0
   -2.7462   -2.1622    2.4245 O   0  0  0  0  0  0  0  0  0  0  0  0
   -1.0553   -1.3139    1.0667 C   0  0  0  0  0  0  0  0  0  0  0  0
   -1.4090    0.0258    1.2746 C   0  0  0  0  0  0  0  0  0  0  0  0
   -0.5463    1.0685    0.9077 C   0  0  0  0  0  0  0  0  0  0  0  0
    0.6931    0.7344    0.3127 C   0  0  0  0  0  0  0  0  0  0  0  0
    1.1170   -0.6036    0.1408 C   0  0  0  0  0  0  0  0  0  0  0  0
    0.2139   -1.6044    0.5442 C   0  0  0  0  0  0  0  0  0  0  0  0
    0.5784   -2.9676    0.4833 O   0  0  0  0  0  0  0  0  0  0  0  0
    1.7959   -3.3989    0.0035 C   0  0  0  0  0  0  0  0  0  0  0  0
    2.0976   -4.5833   -0.0515 O   0  0  0  0  0  0  0  0  0  0  0  0
    2.7034   -2.3523   -0.4593 C   0  0  0  0  0  0  0  0  0  0  0  0
    2.4282   -1.0361   -0.4228 C   0  0  0  0  0  0  0  0  0  0  0  0
    3.4461   -0.0383   -0.9538 C   0  0  0  0  0  0  0  0  0  0  0  0
    4.3477    0.5042    0.1649 C   0  0  0  0  0  0  0  0  0  0  0  0
    5.2699    1.6113   -0.3310 C   0  0  0  0  0  0  0  0  0  0  0  0
    4.2941   -0.6816   -1.9190 O   0  0  0  0  0  0  0  0  0  0  0  0
    1.5217    1.7490   -0.0913 O   0  0  0  0  0  0  0  0  0  0  0  0
   -0.9475    2.5112    1.1681 C   0  0  0  0  0  0  0  0  0  0  0  0
   -1.4783    3.1853   -0.0705 C   0  0  0  0  0  0  0  0  0  0  0  0
   -1.0532    4.3226   -0.6569 C   0  0  0  0  0  0  0  0  0  0  0  0
   -1.7312    4.8356   -1.9027 C   0  0  0  0  0  0  0  0  0  0  0  0
    0.0700    5.1965   -0.1692 C   0  0  0  0  0  0  0  0  0  0  0  0
   -2.6136    0.3660    1.8413 O   0  0  0  0  0  0  0  0  0  0  0  0
   -5.0568   -2.5547   -1.3080 H   0  0  0  0  0  0  0  0  0  0  0  0
   -3.9672   -1.4876   -0.4144 H   0  0  0  0  0  0  0  0  0  0  0  0
   -3.3537   -2.4404   -1.7810 H   0  0  0  0  0  0  0  0  0  0  0  0
   -4.4154   -3.5859    0.8575 H   0  0  0  0  0  0  0  0  0  0  0  0
   -3.8883   -4.5471   -0.5219 H   0  0  0  0  0  0  0  0  0  0  0  0
   -1.6058   -3.5184   -0.3560 H   0  0  0  0  0  0  0  0  0  0  0  0
   -0.9271   -4.8167    1.7124 H   0  0  0  0  0  0  0  0  0  0  0  0
   -2.0265   -5.7271    0.6637 H   0  0  0  0  0  0  0  0  0  0  0  0
   -2.6289   -4.9724    2.1499 H   0  0  0  0  0  0  0  0  0  0  0  0
    3.6488   -2.7289   -0.8381 H   0  0  0  0  0  0  0  0  0  0  0  0
    2.9667    0.7705   -1.5105 H   0  0  0  0  0  0  0  0  0  0  0  0
    3.7515    0.8915    0.9985 H   0  0  0  0  0  0  0  0  0  0  0  0
    4.9743   -0.3039    0.5636 H   0  0  0  0  0  0  0  0  0  0  0  0
    5.9404    1.2508   -1.1172 H   0  0  0  0  0  0  0  0  0  0  0  0
    5.8873    1.9842    0.4924 H   0  0  0  0  0  0  0  0  0  0  0  0
    4.6920    2.4517   -0.7287 H   0  0  0  0  0  0  0  0  0  0  0  0
    3.7594   -0.7979   -2.7231 H   0  0  0  0  0  0  0  0  0  0  0  0
    0.9911    2.5408   -0.2865 H   0  0  0  0  0  0  0  0  0  0  0  0
   -0.0893    3.0333    1.6021 H   0  0  0  0  0  0  0  0  0  0  0  0
   -1.7187    2.5685    1.9452 H   0  0  0  0  0  0  0  0  0  0  0  0
   -2.3312    2.6662   -0.5121 H   0  0  0  0  0  0  0  0  0  0  0  0
   -2.1552    5.8288   -1.7222 H   0  0  0  0  0  0  0  0  0  0  0  0
   -2.5450    4.1819   -2.2338 H   0  0  0  0  0  0  0  0  0  0  0  0
   -1.0095    4.9082   -2.7230 H   0  0  0  0  0  0  0  0  0  0  0  0
    0.5263    4.8442    0.7577 H   0  0  0  0  0  0  0  0  0  0  0  0
   -0.2969    6.2116    0.0161 H   0  0  0  0  0  0  0  0  0  0  0  0
    0.8599    5.2482   -0.9258 H   0  0  0  0  0  0  0  0  0  0  0  0
   -2.9803   -0.4277    2.2955 H   0  0  0  0  0  0  0  0  0  0  0  0
  1  2  1  0
  2  3  1  0
  3  4  1  0
  3  5  1  0
  5  6  2  0
  5  7  1  0
  7  8  1  0
  8  9  2  0
  9 10  1  0
 10 11  2  0
 11 12  1  0
 12 13  1  0
 13 14  1  0
 14 15  2  0
 14 16  1  0
 16 17  2  0
 17 18  1  0
 18 19  1  0
 19 20  1  0
 18 21  1  0
 10 22  1  0
  9 23  1  0
 23 24  1  0
 24 25  2  3
 25 26  1  0
 25 27  1  0
  8 28  1  0
 12  7  2  0
 17 11  1  0
  1 29  1  0
  1 30  1  0
  1 31  1  0
  2 32  1  0
  2 33  1  0
  3 34  1  0
  4 35  1  0
  4 36  1  0
  4 37  1  0
 16 38  1  0
 18 39  1  0
 19 40  1  0
 19 41  1  0
 20 42  1  0
 20 43  1  0
 20 44  1  0
 21 45  1  0
 22 46  1  0
 23 47  1  0
 23 48  1  0
 24 49  1  0
 26 50  1  0
 26 51  1  0
 26 52  1  0
 27 53  1  0
 27 54  1  0
 27 55  1  0
 28 56  1  0
M  END
>  <Name>  (504) 
Assamene

>  <PubChem ID>  (504) 
10500479

>  <CDB ID>  (504) 
CDB0504

>  <Smiles>  (504) 
CCC(C)C(=O)C1=C(C(=C(C2=C1OC(=O)C=C2C(CC)O)O)CC=C(C)C)O

>  <Chemical class>  (504) 
5,7-Dioxygenated Coumarins

>  <Natural source>  (504) 
Kayea assamica

>  <Molecular Formula>  (504) 
C22H28O6

>  <InChI-Key>  (504) 
LVYGPLHUPURZDF-UHFFFAOYSA-N

>  <Total Molweight>  (504) 
388.458

>  <cLogP>  (504) 
3.792

>  <cLogS>  (504) 
-3.971

>  <H-Acceptors>  (504) 
6

>  <H-Donors>  (504) 
3

>  <Rotatable Bonds>  (504) 
7

>  <Polar Surface Area>  (504) 
104.06

$$$$
CDB0505
     RDKit          3D

 69 70  0  0  0  0  0  0  0  0999 V2000
   -3.5974   -3.9032   -2.2150 C   0  0  0  0  0  0  0  0  0  0  0  0
   -3.4348   -4.6245   -0.8831 C   0  0  0  0  0  0  0  0  0  0  0  0
   -3.1112   -3.6651    0.2756 C   0  0  0  0  0  0  0  0  0  0  0  0
   -3.1422   -4.4157    1.6064 C   0  0  0  0  0  0  0  0  0  0  0  0
   -1.7243   -3.0573    0.0852 C   0  0  0  0  0  0  0  0  0  0  0  0
   -0.7162   -3.7545   -0.0571 O   0  0  0  0  0  0  0  0  0  0  0  0
   -1.5604   -1.5845   -0.0618 C   0  0  0  0  0  0  0  0  0  0  0  0
   -0.6658   -1.1154   -1.0318 C   0  0  0  0  0  0  0  0  0  0  0  0
   -0.5039    0.2586   -1.2699 C   0  0  0  0  0  0  0  0  0  0  0  0
   -1.2322    1.1675   -0.4654 C   0  0  0  0  0  0  0  0  0  0  0  0
   -2.1239    0.7373    0.5481 C   0  0  0  0  0  0  0  0  0  0  0  0
   -2.2515   -0.6532    0.7262 C   0  0  0  0  0  0  0  0  0  0  0  0
   -3.0576   -1.1755    1.7614 O   0  0  0  0  0  0  0  0  0  0  0  0
   -3.7985   -0.3825    2.6099 C   0  0  0  0  0  0  0  0  0  0  0  0
   -4.5117   -0.8500    3.4876 O   0  0  0  0  0  0  0  0  0  0  0  0
   -3.6903    1.0561    2.3888 C   0  0  0  0  0  0  0  0  0  0  0  0
   -2.9270    1.6267    1.4392 C   0  0  0  0  0  0  0  0  0  0  0  0
   -2.8898    3.1428    1.3095 C   0  0  0  0  0  0  0  0  0  0  0  0
   -3.7961    3.6375    0.1701 C   0  0  0  0  0  0  0  0  0  0  0  0
   -3.6193    5.1246   -0.1117 C   0  0  0  0  0  0  0  0  0  0  0  0
   -3.3521    3.7367    2.5334 O   0  0  0  0  0  0  0  0  0  0  0  0
   -1.0721    2.5152   -0.6654 O   0  0  0  0  0  0  0  0  0  0  0  0
    0.4576    0.7110   -2.3552 C   0  0  0  0  0  0  0  0  0  0  0  0
    1.8349    0.9952   -1.8121 C   0  0  0  0  0  0  0  0  0  0  0  0
    2.9906    0.3596   -2.0971 C   0  0  0  0  0  0  0  0  0  0  0  0
    3.1320   -0.7860   -3.0644 C   0  0  0  0  0  0  0  0  0  0  0  0
    4.2832    0.7937   -1.4259 C   0  0  0  0  0  0  0  0  0  0  0  0
    4.7622   -0.2062   -0.3669 C   0  0  0  0  0  0  0  0  0  0  0  0
    6.0113    0.2796    0.3191 C   0  0  0  0  0  0  0  0  0  0  0  0
    6.1213    0.7993    1.5574 C   0  0  0  0  0  0  0  0  0  0  0  0
    7.4662    1.2019    2.1043 C   0  0  0  0  0  0  0  0  0  0  0  0
    4.9738    1.0405    2.4990 C   0  0  0  0  0  0  0  0  0  0  0  0
    0.0783   -1.9860   -1.7923 O   0  0  0  0  0  0  0  0  0  0  0  0
   -2.6634   -3.4292   -2.5310 H   0  0  0  0  0  0  0  0  0  0  0  0
   -4.3723   -3.1326   -2.1523 H   0  0  0  0  0  0  0  0  0  0  0  0
   -3.8900   -4.6146   -2.9939 H   0  0  0  0  0  0  0  0  0  0  0  0
   -2.6519   -5.3861   -0.9847 H   0  0  0  0  0  0  0  0  0  0  0  0
   -4.3690   -5.1560   -0.6637 H   0  0  0  0  0  0  0  0  0  0  0  0
   -3.8783   -2.8851    0.2852 H   0  0  0  0  0  0  0  0  0  0  0  0
   -4.1431   -4.8130    1.8047 H   0  0  0  0  0  0  0  0  0  0  0  0
   -2.8676   -3.7604    2.4393 H   0  0  0  0  0  0  0  0  0  0  0  0
   -2.4382   -5.2556    1.6075 H   0  0  0  0  0  0  0  0  0  0  0  0
   -4.2949    1.6479    3.0690 H   0  0  0  0  0  0  0  0  0  0  0  0
   -1.8597    3.4935    1.2073 H   0  0  0  0  0  0  0  0  0  0  0  0
   -4.8480    3.4659    0.4322 H   0  0  0  0  0  0  0  0  0  0  0  0
   -3.6032    3.0854   -0.7562 H   0  0  0  0  0  0  0  0  0  0  0  0
   -2.5788    5.3543   -0.3621 H   0  0  0  0  0  0  0  0  0  0  0  0
   -4.2454    5.4231   -0.9587 H   0  0  0  0  0  0  0  0  0  0  0  0
   -3.9116    5.7341    0.7486 H   0  0  0  0  0  0  0  0  0  0  0  0
   -3.0764    4.6687    2.5189 H   0  0  0  0  0  0  0  0  0  0  0  0
   -0.2614    2.6945   -1.1668 H   0  0  0  0  0  0  0  0  0  0  0  0
    0.4668   -0.0182   -3.1701 H   0  0  0  0  0  0  0  0  0  0  0  0
    0.0732    1.6182   -2.8376 H   0  0  0  0  0  0  0  0  0  0  0  0
    1.8785    1.8086   -1.0888 H   0  0  0  0  0  0  0  0  0  0  0  0
    2.2333   -0.9748   -3.6540 H   0  0  0  0  0  0  0  0  0  0  0  0
    3.9377   -0.5791   -3.7769 H   0  0  0  0  0  0  0  0  0  0  0  0
    3.3741   -1.7092   -2.5287 H   0  0  0  0  0  0  0  0  0  0  0  0
    5.0557    0.9325   -2.1937 H   0  0  0  0  0  0  0  0  0  0  0  0
    4.1523    1.7786   -0.9575 H   0  0  0  0  0  0  0  0  0  0  0  0
    3.9612   -0.4117    0.3506 H   0  0  0  0  0  0  0  0  0  0  0  0
    4.9942   -1.1707   -0.8355 H   0  0  0  0  0  0  0  0  0  0  0  0
    6.9164    0.1657   -0.2779 H   0  0  0  0  0  0  0  0  0  0  0  0
    8.2789    1.0053    1.3971 H   0  0  0  0  0  0  0  0  0  0  0  0
    7.4775    2.2723    2.3343 H   0  0  0  0  0  0  0  0  0  0  0  0
    7.6831    0.6457    3.0222 H   0  0  0  0  0  0  0  0  0  0  0  0
    3.9953    0.8739    2.0430 H   0  0  0  0  0  0  0  0  0  0  0  0
    5.0573    0.3829    3.3703 H   0  0  0  0  0  0  0  0  0  0  0  0
    4.9867    2.0786    2.8486 H   0  0  0  0  0  0  0  0  0  0  0  0
    0.0982   -2.8580   -1.3348 H   0  0  0  0  0  0  0  0  0  0  0  0
  1  2  1  0
  2  3  1  0
  3  4  1  0
  3  5  1  0
  5  6  2  0
  5  7  1  0
  7  8  1  0
  8  9  2  0
  9 10  1  0
 10 11  2  0
 11 12  1  0
 12 13  1  0
 13 14  1  0
 14 15  2  0
 14 16  1  0
 16 17  2  0
 17 18  1  0
 18 19  1  0
 19 20  1  0
 18 21  1  0
 10 22  1  0
  9 23  1  0
 23 24  1  0
 24 25  2  3
 25 26  1  0
 25 27  1  0
 27 28  1  0
 28 29  1  0
 29 30  2  3
 30 31  1  0
 30 32  1  0
  8 33  1  0
 12  7  2  0
 17 11  1  0
  1 34  1  0
  1 35  1  0
  1 36  1  0
  2 37  1  0
  2 38  1  0
  3 39  1  0
  4 40  1  0
  4 41  1  0
  4 42  1  0
 16 43  1  0
 18 44  1  0
 19 45  1  0
 19 46  1  0
 20 47  1  0
 20 48  1  0
 20 49  1  0
 21 50  1  0
 22 51  1  0
 23 52  1  0
 23 53  1  0
 24 54  1  0
 26 55  1  0
 26 56  1  0
 26 57  1  0
 27 58  1  0
 27 59  1  0
 28 60  1  0
 28 61  1  0
 29 62  1  0
 31 63  1  0
 31 64  1  0
 31 65  1  0
 32 66  1  0
 32 67  1  0
 32 68  1  0
 33 69  1  0
M  END
>  <Name>  (505) 
Surangin C

>  <PubChem ID>  (505) 
5386468

>  <CDB ID>  (505) 
CDB0505

>  <Smiles>  (505) 
CCC(C)C(=O)C1=C(C(=C(C2=C1OC(=O)C=C2C(CC)O)O)CC=C(C)CCC=C(C)C)O

>  <Chemical class>  (505) 
5,7-Dioxygenated Coumarins

>  <Natural source>  (505) 
Mammea longifolia

>  <Molecular Formula>  (505) 
C27H36O6

>  <InChI-Key>  (505) 
PVNISOOZUQFLJH-UHFFFAOYSA-N

>  <Total Molweight>  (505) 
456.577

>  <cLogP>  (505) 
5.9638

>  <cLogS>  (505) 
-4.947

>  <H-Acceptors>  (505) 
6

>  <H-Donors>  (505) 
3

>  <Rotatable Bonds>  (505) 
10

>  <Polar Surface Area>  (505) 
104.06

$$$$
CDB0506
     RDKit          3D

 74 75  0  0  0  0  0  0  0  0999 V2000
   -4.1310    5.9820    0.5372 C   0  0  0  0  0  0  0  0  0  0  0  0
   -2.6868    5.5344    0.7096 C   0  0  0  0  0  0  0  0  0  0  0  0
   -2.5530    4.1709    1.4107 C   0  0  0  0  0  0  0  0  0  0  0  0
   -3.0090    4.2170    2.8673 C   0  0  0  0  0  0  0  0  0  0  0  0
   -1.0885    3.7454    1.3601 C   0  0  0  0  0  0  0  0  0  0  0  0
   -0.1857    4.4411    1.8325 O   0  0  0  0  0  0  0  0  0  0  0  0
   -0.6866    2.5211    0.6156 C   0  0  0  0  0  0  0  0  0  0  0  0
    0.4632    2.5832   -0.1819 C   0  0  0  0  0  0  0  0  0  0  0  0
    0.8634    1.4860   -0.9550 C   0  0  0  0  0  0  0  0  0  0  0  0
    0.1099    0.2912   -0.8631 C   0  0  0  0  0  0  0  0  0  0  0  0
   -1.0384    0.1712   -0.0484 C   0  0  0  0  0  0  0  0  0  0  0  0
   -1.3983    1.3132    0.6901 C   0  0  0  0  0  0  0  0  0  0  0  0
   -2.4763    1.2700    1.6016 O   0  0  0  0  0  0  0  0  0  0  0  0
   -3.2455    0.1452    1.7967 C   0  0  0  0  0  0  0  0  0  0  0  0
   -4.1793    0.1150    2.5870 O   0  0  0  0  0  0  0  0  0  0  0  0
   -2.8898   -1.0193    0.9895 C   0  0  0  0  0  0  0  0  0  0  0  0
   -1.8766   -1.0551    0.1050 C   0  0  0  0  0  0  0  0  0  0  0  0
   -1.5942   -2.3325   -0.6901 C   0  0  0  0  0  0  0  0  0  0  0  0
   -2.1181   -2.2611   -2.1411 C   0  0  0  0  0  0  0  0  0  0  0  0
   -3.6365   -2.1697   -2.2580 C   0  0  0  0  0  0  0  0  0  0  0  0
   -2.2279   -3.4580   -0.0250 O   0  0  0  0  0  0  0  0  0  0  0  0
   -1.6612   -4.6778   -0.2293 C   0  0  0  0  0  0  0  0  0  0  0  0
   -0.6752   -4.9035   -0.9151 O   0  0  0  0  0  0  0  0  0  0  0  0
   -2.4290   -5.7252    0.5172 C   0  0  0  0  0  0  0  0  0  0  0  0
    0.5256   -0.7920   -1.5917 O   0  0  0  0  0  0  0  0  0  0  0  0
    2.0859    1.5886   -1.8541 C   0  0  0  0  0  0  0  0  0  0  0  0
    3.2770    0.8921   -1.2493 C   0  0  0  0  0  0  0  0  0  0  0  0
    4.0439   -0.0771   -1.7905 C   0  0  0  0  0  0  0  0  0  0  0  0
    3.9141   -0.6011   -3.1951 C   0  0  0  0  0  0  0  0  0  0  0  0
    5.1445   -0.7163   -0.9588 C   0  0  0  0  0  0  0  0  0  0  0  0
    4.9032   -2.1943   -0.6086 C   0  0  0  0  0  0  0  0  0  0  0  0
    3.5656   -2.4761    0.0263 C   0  0  0  0  0  0  0  0  0  0  0  0
    3.2230   -2.3069    1.3180 C   0  0  0  0  0  0  0  0  0  0  0  0
    1.8366   -2.6468    1.7975 C   0  0  0  0  0  0  0  0  0  0  0  0
    4.1391   -1.7757    2.3849 C   0  0  0  0  0  0  0  0  0  0  0  0
    1.2374    3.7166   -0.2321 O   0  0  0  0  0  0  0  0  0  0  0  0
   -4.1690    6.9139   -0.0361 H   0  0  0  0  0  0  0  0  0  0  0  0
   -4.6114    6.1670    1.5023 H   0  0  0  0  0  0  0  0  0  0  0  0
   -4.7141    5.2291   -0.0023 H   0  0  0  0  0  0  0  0  0  0  0  0
   -2.2205    5.4772   -0.2824 H   0  0  0  0  0  0  0  0  0  0  0  0
   -2.1356    6.3046    1.2636 H   0  0  0  0  0  0  0  0  0  0  0  0
   -3.1699    3.4548    0.8592 H   0  0  0  0  0  0  0  0  0  0  0  0
   -2.5060    5.0207    3.4166 H   0  0  0  0  0  0  0  0  0  0  0  0
   -2.7804    3.2790    3.3840 H   0  0  0  0  0  0  0  0  0  0  0  0
   -4.0886    4.3801    2.9389 H   0  0  0  0  0  0  0  0  0  0  0  0
   -3.5401   -1.8714    1.1577 H   0  0  0  0  0  0  0  0  0  0  0  0
   -0.5200   -2.5300   -0.6696 H   0  0  0  0  0  0  0  0  0  0  0  0
   -1.8026   -3.1645   -2.6768 H   0  0  0  0  0  0  0  0  0  0  0  0
   -1.6783   -1.4119   -2.6743 H   0  0  0  0  0  0  0  0  0  0  0  0
   -4.0175   -1.2438   -1.8173 H   0  0  0  0  0  0  0  0  0  0  0  0
   -4.1289   -3.0162   -1.7698 H   0  0  0  0  0  0  0  0  0  0  0  0
   -3.9292   -2.1778   -3.3131 H   0  0  0  0  0  0  0  0  0  0  0  0
   -1.9680   -6.7025    0.3476 H   0  0  0  0  0  0  0  0  0  0  0  0
   -2.4045   -5.5096    1.5883 H   0  0  0  0  0  0  0  0  0  0  0  0
   -3.4593   -5.7583    0.1541 H   0  0  0  0  0  0  0  0  0  0  0  0
    1.5001   -0.8032   -1.6040 H   0  0  0  0  0  0  0  0  0  0  0  0
    2.3540    2.6346   -2.0407 H   0  0  0  0  0  0  0  0  0  0  0  0
    1.8156    1.1875   -2.8361 H   0  0  0  0  0  0  0  0  0  0  0  0
    3.4965    1.2133   -0.2293 H   0  0  0  0  0  0  0  0  0  0  0  0
    3.5064   -1.6166   -3.1885 H   0  0  0  0  0  0  0  0  0  0  0  0
    3.2697    0.0158   -3.8254 H   0  0  0  0  0  0  0  0  0  0  0  0
    4.8958   -0.6259   -3.6802 H   0  0  0  0  0  0  0  0  0  0  0  0
    6.0938   -0.6298   -1.5029 H   0  0  0  0  0  0  0  0  0  0  0  0
    5.2912   -0.1540   -0.0275 H   0  0  0  0  0  0  0  0  0  0  0  0
    5.7114   -2.5488    0.0425 H   0  0  0  0  0  0  0  0  0  0  0  0
    4.9813   -2.8034   -1.5184 H   0  0  0  0  0  0  0  0  0  0  0  0
    2.8175   -2.8715   -0.6613 H   0  0  0  0  0  0  0  0  0  0  0  0
    1.3357   -1.7496    2.1756 H   0  0  0  0  0  0  0  0  0  0  0  0
    1.2137   -3.0667    1.0015 H   0  0  0  0  0  0  0  0  0  0  0  0
    1.8840   -3.3865    2.6034 H   0  0  0  0  0  0  0  0  0  0  0  0
    4.2497   -2.5124    3.1875 H   0  0  0  0  0  0  0  0  0  0  0  0
    3.7240   -0.8573    2.8131 H   0  0  0  0  0  0  0  0  0  0  0  0
    5.1406   -1.5417    2.0156 H   0  0  0  0  0  0  0  0  0  0  0  0
    1.0171    4.2803    0.5449 H   0  0  0  0  0  0  0  0  0  0  0  0
  1  2  1  0
  2  3  1  0
  3  4  1  0
  3  5  1  0
  5  6  2  0
  5  7  1  0
  7  8  1  0
  8  9  2  0
  9 10  1  0
 10 11  2  0
 11 12  1  0
 12 13  1  0
 13 14  1  0
 14 15  2  0
 14 16  1  0
 16 17  2  0
 17 18  1  0
 18 19  1  0
 19 20  1  0
 18 21  1  0
 21 22  1  0
 22 23  2  0
 22 24  1  0
 10 25  1  0
  9 26  1  0
 26 27  1  0
 27 28  2  3
 28 29  1  0
 28 30  1  0
 30 31  1  0
 31 32  1  0
 32 33  2  3
 33 34  1  0
 33 35  1  0
  8 36  1  0
 12  7  2  0
 17 11  1  0
  1 37  1  0
  1 38  1  0
  1 39  1  0
  2 40  1  0
  2 41  1  0
  3 42  1  0
  4 43  1  0
  4 44  1  0
  4 45  1  0
 16 46  1  0
 18 47  1  0
 19 48  1  0
 19 49  1  0
 20 50  1  0
 20 51  1  0
 20 52  1  0
 24 53  1  0
 24 54  1  0
 24 55  1  0
 25 56  1  0
 26 57  1  0
 26 58  1  0
 27 59  1  0
 29 60  1  0
 29 61  1  0
 29 62  1  0
 30 63  1  0
 30 64  1  0
 31 65  1  0
 31 66  1  0
 32 67  1  0
 34 68  1  0
 34 69  1  0
 34 70  1  0
 35 71  1  0
 35 72  1  0
 35 73  1  0
 36 74  1  0
M  END
>  <Name>  (506) 
Surangin B

>  <PubChem ID>  (506) 
5321564

>  <CDB ID>  (506) 
CDB0506

>  <Smiles>  (506) 
CCC(C)C(=O)C1=C(C(=C(C2=C1OC(=O)C=C2C(CC)OC(=O)C)O)CC=C(C)CCC=C(C)C)O

>  <Chemical class>  (506) 
5,7-Dioxygenated Coumarins

>  <Natural source>  (506) 
Mammea longifolia

>  <Molecular Formula>  (506) 
C29H38O7

>  <InChI-Key>  (506) 
UTENTZJIWUVVPY-UHFFFAOYSA-N

>  <Total Molweight>  (506) 
498.614

>  <cLogP>  (506) 
6.4484

>  <cLogS>  (506) 
-5.357

>  <H-Acceptors>  (506) 
7

>  <H-Donors>  (506) 
2

>  <Rotatable Bonds>  (506) 
12

>  <Polar Surface Area>  (506) 
110.13

$$$$
CDB0507
     RDKit          3D

 59 61  0  0  0  0  0  0  0  0999 V2000
    7.2713    1.4623    1.7111 C   0  0  0  0  0  0  0  0  0  0  0  0
    6.6527    1.5258    0.3233 C   0  0  0  0  0  0  0  0  0  0  0  0
    5.1242    1.6047    0.3368 C   0  0  0  0  0  0  0  0  0  0  0  0
    4.4603    0.3554    0.9299 C   0  0  0  0  0  0  0  0  0  0  0  0
    2.9257    0.3648    0.7818 C   0  0  0  0  0  0  0  0  0  0  0  0
    2.3036   -0.0732   -0.5373 C   0  0  0  0  0  0  0  0  0  0  0  0
    3.0497   -0.3409   -1.6223 C   0  0  0  0  0  0  0  0  0  0  0  0
    2.5264   -0.8710   -2.8842 C   0  0  0  0  0  0  0  0  0  0  0  0
    3.2505   -1.0118   -3.8613 O   0  0  0  0  0  0  0  0  0  0  0  0
    1.1972   -1.2242   -2.8849 O   0  0  0  0  0  0  0  0  0  0  0  0
    0.3457   -0.9693   -1.7821 C   0  0  0  0  0  0  0  0  0  0  0  0
   -0.9971   -1.3754   -1.9372 C   0  0  0  0  0  0  0  0  0  0  0  0
   -1.4761   -2.0331   -3.1505 C   0  0  0  0  0  0  0  0  0  0  0  0
   -2.7205   -2.5204   -3.1570 C   0  0  0  0  0  0  0  0  0  0  0  0
   -3.6514   -2.3993   -1.9754 C   0  0  0  0  0  0  0  0  0  0  0  0
   -5.0217   -1.9097   -2.4588 C   0  0  0  0  0  0  0  0  0  0  0  0
   -3.8040   -3.7575   -1.2817 C   0  0  0  0  0  0  0  0  0  0  0  0
   -3.2260   -1.4449   -0.9835 O   0  0  0  0  0  0  0  0  0  0  0  0
   -1.8975   -1.1288   -0.9023 C   0  0  0  0  0  0  0  0  0  0  0  0
   -1.4577   -0.4554    0.2393 C   0  0  0  0  0  0  0  0  0  0  0  0
   -2.4207   -0.1955    1.3314 C   0  0  0  0  0  0  0  0  0  0  0  0
   -2.8036   -1.1314    2.0288 O   0  0  0  0  0  0  0  0  0  0  0  0
   -2.9155    1.2369    1.4992 C   0  0  1  0  0  0  0  0  0  0  0  0
   -4.3337    1.3334    0.9404 C   0  0  0  0  0  0  0  0  0  0  0  0
   -2.8372    1.6307    2.9824 C   0  0  0  0  0  0  0  0  0  0  0  0
   -3.0841    3.1127    3.2228 C   0  0  0  0  0  0  0  0  0  0  0  0
   -0.1218   -0.0303    0.3621 C   0  0  0  0  0  0  0  0  0  0  0  0
    0.1879    0.7089    1.4736 O   0  0  0  0  0  0  0  0  0  0  0  0
    0.8347   -0.3267   -0.6282 C   0  0  0  0  0  0  0  0  0  0  0  0
    8.3628    1.5042    1.6378 H   0  0  0  0  0  0  0  0  0  0  0  0
    7.0099    0.5323    2.2244 H   0  0  0  0  0  0  0  0  0  0  0  0
    6.9406    2.3039    2.3278 H   0  0  0  0  0  0  0  0  0  0  0  0
    6.9749    0.6553   -0.2598 H   0  0  0  0  0  0  0  0  0  0  0  0
    7.0414    2.4128   -0.1911 H   0  0  0  0  0  0  0  0  0  0  0  0
    4.8102    2.4879    0.9069 H   0  0  0  0  0  0  0  0  0  0  0  0
    4.7833    1.7661   -0.6913 H   0  0  0  0  0  0  0  0  0  0  0  0
    4.8871   -0.5589    0.5017 H   0  0  0  0  0  0  0  0  0  0  0  0
    4.6859    0.3252    2.0033 H   0  0  0  0  0  0  0  0  0  0  0  0
    2.5904    1.3797    1.0193 H   0  0  0  0  0  0  0  0  0  0  0  0
    2.5449   -0.3066    1.5628 H   0  0  0  0  0  0  0  0  0  0  0  0
    4.1249   -0.2129   -1.6443 H   0  0  0  0  0  0  0  0  0  0  0  0
   -0.8206   -2.1445   -4.0073 H   0  0  0  0  0  0  0  0  0  0  0  0
   -3.0808   -3.0483   -4.0362 H   0  0  0  0  0  0  0  0  0  0  0  0
   -5.7153   -1.7983   -1.6169 H   0  0  0  0  0  0  0  0  0  0  0  0
   -4.9414   -0.9196   -2.9237 H   0  0  0  0  0  0  0  0  0  0  0  0
   -5.4707   -2.5959   -3.1854 H   0  0  0  0  0  0  0  0  0  0  0  0
   -4.4776   -3.6811   -0.4202 H   0  0  0  0  0  0  0  0  0  0  0  0
   -4.1969   -4.5216   -1.9613 H   0  0  0  0  0  0  0  0  0  0  0  0
   -2.8425   -4.1097   -0.8894 H   0  0  0  0  0  0  0  0  0  0  0  0
   -2.2684    1.9068    0.9201 H   0  0  0  0  0  0  0  0  0  0  0  0
   -4.7031    2.3628    0.9651 H   0  0  0  0  0  0  0  0  0  0  0  0
   -5.0292    0.7058    1.5085 H   0  0  0  0  0  0  0  0  0  0  0  0
   -4.3669    0.9980   -0.1017 H   0  0  0  0  0  0  0  0  0  0  0  0
   -3.5560    1.0460    3.5699 H   0  0  0  0  0  0  0  0  0  0  0  0
   -1.8440    1.3783    3.3747 H   0  0  0  0  0  0  0  0  0  0  0  0
   -2.9399    3.3501    4.2817 H   0  0  0  0  0  0  0  0  0  0  0  0
   -4.1055    3.3985    2.9556 H   0  0  0  0  0  0  0  0  0  0  0  0
   -2.3886    3.7261    2.6413 H   0  0  0  0  0  0  0  0  0  0  0  0
    0.6299    1.5203    1.1699 H   0  0  0  0  0  0  0  0  0  0  0  0
  1  2  1  0
  2  3  1  0
  3  4  1  0
  4  5  1  0
  5  6  1  0
  6  7  2  0
  7  8  1  0
  8  9  2  0
  8 10  1  0
 10 11  1  0
 11 12  2  0
 12 13  1  0
 13 14  2  0
 14 15  1  0
 15 16  1  0
 15 17  1  0
 15 18  1  0
 18 19  1  0
 19 20  2  0
 20 21  1  0
 21 22  2  0
 21 23  1  0
 23 24  1  0
 23 25  1  0
 25 26  1  0
 20 27  1  0
 27 28  1  0
 27 29  2  0
 29  6  1  0
 29 11  1  0
 19 12  1  0
  1 30  1  0
  1 31  1  0
  1 32  1  0
  2 33  1  0
  2 34  1  0
  3 35  1  0
  3 36  1  0
  4 37  1  0
  4 38  1  0
  5 39  1  0
  5 40  1  0
  7 41  1  0
 13 42  1  0
 14 43  1  0
 16 44  1  0
 16 45  1  0
 16 46  1  0
 17 47  1  0
 17 48  1  0
 17 49  1  0
 23 50  1  6
 24 51  1  0
 24 52  1  0
 24 53  1  0
 25 54  1  0
 25 55  1  0
 26 56  1  0
 26 57  1  0
 26 58  1  0
 28 59  1  0
M  END
>  <Name>  (507) 
Mammea C/Ab Cyclo D

>  <PubChem ID>  (507) 
131751500

>  <CDB ID>  (507) 
CDB0507

>  <Smiles>  (507) 
CCCCCC1=CC(=O)OC2=C3C=CC(C)(C)OC3=C(C(=O)[C@@H](C)CC)C(O)=C12

>  <Chemical class>  (507) 
5,7-Dioxygenated Coumarins

>  <Natural source>  (507) 
Mammea americana

>  <Molecular Formula>  (507) 
C24H30O5

>  <InChI-Key>  (507) 
YBYLFVYSBOCFRD-AWEZNQCLSA-N

>  <Total Molweight>  (507) 
398.497

>  <cLogP>  (507) 
5.0725

>  <cLogS>  (507) 
-5.526

>  <H-Acceptors>  (507) 
5

>  <H-Donors>  (507) 
1

>  <Rotatable Bonds>  (507) 
7

>  <Polar Surface Area>  (507) 
72.83

$$$$
CDB0508
     RDKit          3D

 53 55  0  0  0  0  0  0  0  0999 V2000
   -0.8173    3.8146    2.1834 C   0  0  0  0  0  0  0  0  0  0  0  0
   -0.0824    3.4386    0.8969 C   0  0  0  0  0  0  0  0  0  0  0  0
    0.2350    4.6822    0.0733 C   0  0  0  0  0  0  0  0  0  0  0  0
   -0.9566    2.4906    0.0849 C   0  0  0  0  0  0  0  0  0  0  0  0
   -2.1080    2.7856   -0.2483 O   0  0  0  0  0  0  0  0  0  0  0  0
   -0.4835    1.1134   -0.2301 C   0  0  0  0  0  0  0  0  0  0  0  0
   -1.4074    0.0520   -0.1120 C   0  0  0  0  0  0  0  0  0  0  0  0
   -1.0206   -1.2813   -0.3333 C   0  0  0  0  0  0  0  0  0  0  0  0
    0.3087   -1.5021   -0.7216 C   0  0  0  0  0  0  0  0  0  0  0  0
    1.2482   -0.4651   -0.9083 C   0  0  0  0  0  0  0  0  0  0  0  0
    0.8318    0.8487   -0.6380 C   0  0  0  0  0  0  0  0  0  0  0  0
    1.6919    1.8998   -0.8084 O   0  0  0  0  0  0  0  0  0  0  0  0
    2.6509   -0.7779   -1.3956 C   0  0  0  0  0  0  0  0  0  0  0  0
    3.6595   -0.7412   -0.2781 C   0  0  0  0  0  0  0  0  0  0  0  0
    4.7942   -0.0176   -0.1955 C   0  0  0  0  0  0  0  0  0  0  0  0
    5.6783   -0.1251    1.0222 C   0  0  0  0  0  0  0  0  0  0  0  0
    5.3179    0.9216   -1.2476 C   0  0  0  0  0  0  0  0  0  0  0  0
    0.7735   -2.8190   -0.9542 O   0  0  0  0  0  0  0  0  0  0  0  0
   -0.0359   -3.9293   -0.8206 C   0  0  0  0  0  0  0  0  0  0  0  0
    0.3740   -5.0668   -1.0155 O   0  0  0  0  0  0  0  0  0  0  0  0
   -1.4235   -3.6785   -0.4314 C   0  0  0  0  0  0  0  0  0  0  0  0
   -1.9189   -2.4524   -0.1960 C   0  0  0  0  0  0  0  0  0  0  0  0
   -3.3478   -2.4474    0.1812 C   0  0  0  0  0  0  0  0  0  0  0  0
   -3.7252   -2.5663    1.5254 C   0  0  0  0  0  0  0  0  0  0  0  0
   -5.0762   -2.5924    1.8767 C   0  0  0  0  0  0  0  0  0  0  0  0
   -6.0563   -2.5031    0.8888 C   0  0  0  0  0  0  0  0  0  0  0  0
   -5.6887   -2.3859   -0.4512 C   0  0  0  0  0  0  0  0  0  0  0  0
   -4.3387   -2.3597   -0.8059 C   0  0  0  0  0  0  0  0  0  0  0  0
   -2.7107    0.3128    0.2389 O   0  0  0  0  0  0  0  0  0  0  0  0
   -0.1960    4.4626    2.8104 H   0  0  0  0  0  0  0  0  0  0  0  0
   -1.0669    2.9189    2.7628 H   0  0  0  0  0  0  0  0  0  0  0  0
   -1.7541    4.3427    1.9737 H   0  0  0  0  0  0  0  0  0  0  0  0
    0.8482    2.9458    1.1928 H   0  0  0  0  0  0  0  0  0  0  0  0
    0.8911    5.3595    0.6298 H   0  0  0  0  0  0  0  0  0  0  0  0
   -0.6762    5.2320   -0.1880 H   0  0  0  0  0  0  0  0  0  0  0  0
    0.7356    4.4192   -0.8641 H   0  0  0  0  0  0  0  0  0  0  0  0
    2.6113    1.5837   -0.7731 H   0  0  0  0  0  0  0  0  0  0  0  0
    2.8916   -0.0870   -2.2093 H   0  0  0  0  0  0  0  0  0  0  0  0
    2.6937   -1.7695   -1.8606 H   0  0  0  0  0  0  0  0  0  0  0  0
    3.4189   -1.4116    0.5493 H   0  0  0  0  0  0  0  0  0  0  0  0
    5.7858    0.8549    1.4987 H   0  0  0  0  0  0  0  0  0  0  0  0
    6.6723   -0.4861    0.7386 H   0  0  0  0  0  0  0  0  0  0  0  0
    5.2750   -0.8152    1.7707 H   0  0  0  0  0  0  0  0  0  0  0  0
    4.7011    0.9568   -2.1474 H   0  0  0  0  0  0  0  0  0  0  0  0
    6.3234    0.6168   -1.5567 H   0  0  0  0  0  0  0  0  0  0  0  0
    5.3742    1.9391   -0.8468 H   0  0  0  0  0  0  0  0  0  0  0  0
   -2.0305   -4.5748   -0.3467 H   0  0  0  0  0  0  0  0  0  0  0  0
   -2.9702   -2.6296    2.3049 H   0  0  0  0  0  0  0  0  0  0  0  0
   -5.3636   -2.6774    2.9212 H   0  0  0  0  0  0  0  0  0  0  0  0
   -7.1077   -2.5191    1.1639 H   0  0  0  0  0  0  0  0  0  0  0  0
   -6.4531   -2.3100   -1.2200 H   0  0  0  0  0  0  0  0  0  0  0  0
   -4.0643   -2.2611   -1.8532 H   0  0  0  0  0  0  0  0  0  0  0  0
   -2.9056    1.2610    0.0643 H   0  0  0  0  0  0  0  0  0  0  0  0
  1  2  1  0
  2  3  1  0
  2  4  1  0
  4  5  2  0
  4  6  1  0
  6  7  2  0
  7  8  1  0
  8  9  2  0
  9 10  1  0
 10 11  2  0
 11 12  1  0
 10 13  1  0
 13 14  1  0
 14 15  2  3
 15 16  1  0
 15 17  1  0
  9 18  1  0
 18 19  1  0
 19 20  2  0
 19 21  1  0
 21 22  2  0
 22 23  1  0
 23 24  2  0
 24 25  1  0
 25 26  2  0
 26 27  1  0
 27 28  2  0
  7 29  1  0
 11  6  1  0
 22  8  1  0
 28 23  1  0
  1 30  1  0
  1 31  1  0
  1 32  1  0
  2 33  1  0
  3 34  1  0
  3 35  1  0
  3 36  1  0
 12 37  1  0
 13 38  1  0
 13 39  1  0
 14 40  1  0
 16 41  1  0
 16 42  1  0
 16 43  1  0
 17 44  1  0
 17 45  1  0
 17 46  1  0
 21 47  1  0
 24 48  1  0
 25 49  1  0
 26 50  1  0
 27 51  1  0
 28 52  1  0
 29 53  1  0
M  END
>  <Name>  (508) 
Mesuol

>  <PubChem ID>  (508) 
5277586

>  <CDB ID>  (508) 
CDB0508

>  <Smiles>  (508) 
CC(C)C(=O)C1=C(C2=C(C(=C1O)CC=C(C)C)OC(=O)C=C2C3=CC=CC=C3)O

>  <Chemical class>  (508) 
5,7-Dioxygenated Coumarins

>  <Natural source>  (508) 
Mesua ferrea

>  <Molecular Formula>  (508) 
C24H24O5

>  <InChI-Key>  (508) 
IWUNXYBEJCJQHB-UHFFFAOYSA-N

>  <Total Molweight>  (508) 
392.45

>  <cLogP>  (508) 
4.8705

>  <cLogS>  (508) 
-5.036

>  <H-Acceptors>  (508) 
5

>  <H-Donors>  (508) 
2

>  <Rotatable Bonds>  (508) 
5

>  <Polar Surface Area>  (508) 
83.83

$$$$
CDB0509
     RDKit          3D

 45 47  0  0  0  0  0  0  0  0999 V2000
    2.5474   -3.0332    1.6664 C   0  0  0  0  0  0  0  0  0  0  0  0
    1.5591   -2.9320    2.8181 C   0  0  0  0  0  0  0  0  0  0  0  0
    0.4109   -1.9668    2.5319 C   0  0  0  0  0  0  0  0  0  0  0  0
    0.8614   -0.5165    2.5268 C   0  0  0  0  0  0  0  0  0  0  0  0
    1.5789   -0.0495    3.4150 O   0  0  0  0  0  0  0  0  0  0  0  0
    0.3028    0.4388    1.5320 C   0  0  0  0  0  0  0  0  0  0  0  0
   -0.0930    1.7038    1.9936 C   0  0  0  0  0  0  0  0  0  0  0  0
   -0.6612    2.6169    1.1075 C   0  0  0  0  0  0  0  0  0  0  0  0
   -0.8248    2.2628   -0.2411 C   0  0  0  0  0  0  0  0  0  0  0  0
   -0.4042    1.0230   -0.7509 C   0  0  0  0  0  0  0  0  0  0  0  0
    0.1997    0.1274    0.1610 C   0  0  0  0  0  0  0  0  0  0  0  0
    0.7552   -1.0600   -0.2355 O   0  0  0  0  0  0  0  0  0  0  0  0
   -0.6438    0.7546   -2.1926 C   0  0  0  0  0  0  0  0  0  0  0  0
   -1.2371    1.7008   -2.9397 C   0  0  0  0  0  0  0  0  0  0  0  0
   -1.6750    2.9974   -2.4197 C   0  0  0  0  0  0  0  0  0  0  0  0
   -2.2199    3.8156   -3.1489 O   0  0  0  0  0  0  0  0  0  0  0  0
   -1.4592    3.2122   -1.0760 O   0  0  0  0  0  0  0  0  0  0  0  0
   -0.3536   -0.4868   -2.9376 C   0  0  0  0  0  0  0  0  0  0  0  0
   -1.1698   -1.6134   -2.7738 C   0  0  0  0  0  0  0  0  0  0  0  0
   -0.8821   -2.7937   -3.4607 C   0  0  0  0  0  0  0  0  0  0  0  0
    0.2173   -2.8541   -4.3160 C   0  0  0  0  0  0  0  0  0  0  0  0
    1.0304   -1.7350   -4.4895 C   0  0  0  0  0  0  0  0  0  0  0  0
    0.7470   -0.5529   -3.8043 C   0  0  0  0  0  0  0  0  0  0  0  0
   -1.0449    3.9711    1.5648 C   0  0  0  0  0  0  0  0  0  0  0  0
   -0.5756    4.9530    0.9960 O   0  0  0  0  0  0  0  0  0  0  0  0
   -2.0046    4.0890    2.7184 C   0  0  0  0  0  0  0  0  0  0  0  0
    0.0851    2.0781    3.3022 O   0  0  0  0  0  0  0  0  0  0  0  0
    3.3388   -3.7487    1.9114 H   0  0  0  0  0  0  0  0  0  0  0  0
    2.0518   -3.3797    0.7541 H   0  0  0  0  0  0  0  0  0  0  0  0
    3.0197   -2.0680    1.4594 H   0  0  0  0  0  0  0  0  0  0  0  0
    2.0951   -2.6305    3.7256 H   0  0  0  0  0  0  0  0  0  0  0  0
    1.1429   -3.9278    3.0110 H   0  0  0  0  0  0  0  0  0  0  0  0
   -0.3305   -2.0498    3.3368 H   0  0  0  0  0  0  0  0  0  0  0  0
   -0.1108   -2.2490    1.6151 H   0  0  0  0  0  0  0  0  0  0  0  0
    1.0263   -1.0192   -1.1683 H   0  0  0  0  0  0  0  0  0  0  0  0
   -1.4558    1.5593   -3.9946 H   0  0  0  0  0  0  0  0  0  0  0  0
   -2.0308   -1.5826   -2.1092 H   0  0  0  0  0  0  0  0  0  0  0  0
   -1.5171   -3.6670   -3.3307 H   0  0  0  0  0  0  0  0  0  0  0  0
    0.4375   -3.7741   -4.8528 H   0  0  0  0  0  0  0  0  0  0  0  0
    1.8832   -1.7834   -5.1629 H   0  0  0  0  0  0  0  0  0  0  0  0
    1.3905    0.3125   -3.9527 H   0  0  0  0  0  0  0  0  0  0  0  0
   -1.4658    4.4178    3.6104 H   0  0  0  0  0  0  0  0  0  0  0  0
   -2.5020    3.1366    2.9221 H   0  0  0  0  0  0  0  0  0  0  0  0
   -2.7775    4.8192    2.4623 H   0  0  0  0  0  0  0  0  0  0  0  0
    0.7583    1.4839    3.7105 H   0  0  0  0  0  0  0  0  0  0  0  0
  1  2  1  0
  2  3  1  0
  3  4  1  0
  4  5  2  0
  4  6  1  0
  6  7  1  0
  7  8  2  0
  8  9  1  0
  9 10  2  0
 10 11  1  0
 11 12  1  0
 10 13  1  0
 13 14  2  0
 14 15  1  0
 15 16  2  0
 15 17  1  0
 13 18  1  0
 18 19  2  0
 19 20  1  0
 20 21  2  0
 21 22  1  0
 22 23  2  0
  8 24  1  0
 24 25  2  0
 24 26  1  0
  7 27  1  0
 11  6  2  0
 17  9  1  0
 23 18  1  0
  1 28  1  0
  1 29  1  0
  1 30  1  0
  2 31  1  0
  2 32  1  0
  3 33  1  0
  3 34  1  0
 12 35  1  0
 14 36  1  0
 19 37  1  0
 20 38  1  0
 21 39  1  0
 22 40  1  0
 23 41  1  0
 26 42  1  0
 26 43  1  0
 26 44  1  0
 27 45  1  0
M  END
>  <Name>  (509) 
Racemosone

>  <PubChem ID>  (509) 
15407040

>  <CDB ID>  (509) 
CDB0509

>  <Smiles>  (509) 
CCCC(=O)C1=C(C(=C2C(=C1O)C(=CC(=O)O2)C3=CC=CC=C3)C(=O)C)O

>  <Chemical class>  (509) 
5,7-Dioxygenated Coumarins

>  <Natural source>  (509) 
Mesua racemosa

>  <Molecular Formula>  (509) 
C21H18O6

>  <InChI-Key>  (509) 
CWYKFYFKUYOIRI-UHFFFAOYSA-N

>  <Total Molweight>  (509) 
366.368

>  <cLogP>  (509) 
2.9553

>  <cLogS>  (509) 
-4.891

>  <H-Acceptors>  (509) 
6

>  <H-Donors>  (509) 
2

>  <Rotatable Bonds>  (509) 
5

>  <Polar Surface Area>  (509) 
100.9

$$$$
CDB0510
     RDKit          3D

 49 52  0  0  0  0  0  0  0  0999 V2000
   -4.9880    0.8282   -0.0932 C   0  0  0  0  0  0  0  0  0  0  0  0
   -3.5633    1.2636    0.1087 C   0  0  0  0  0  0  0  0  0  0  0  0
   -3.2506    2.5564    0.5142 C   0  0  0  0  0  0  0  0  0  0  0  0
   -1.9258    2.9433    0.6985 C   0  0  0  0  0  0  0  0  0  0  0  0
   -0.8626    2.0503    0.4539 C   0  0  0  0  0  0  0  0  0  0  0  0
    0.5274    2.5397    0.7672 C   0  0  0  0  0  0  0  0  0  0  0  0
    1.3518    1.4925    1.5086 C   0  0  0  0  0  0  0  0  0  0  0  0
    2.0720    0.6215    0.5179 C   0  0  0  0  0  0  0  0  0  0  0  0
    1.3666   -0.1274   -0.4363 C   0  0  0  0  0  0  0  0  0  0  0  0
    2.1145   -0.8734   -1.3811 C   0  0  0  0  0  0  0  0  0  0  0  0
    3.5125   -0.8899   -1.3862 C   0  0  0  0  0  0  0  0  0  0  0  0
    4.2068   -0.1588   -0.4356 C   0  0  0  0  0  0  0  0  0  0  0  0
    3.4791    0.5873    0.5018 C   0  0  0  0  0  0  0  0  0  0  0  0
    4.1827    1.3190    1.4290 O   0  0  0  0  0  0  0  0  0  0  0  0
    5.5705   -0.0789   -0.3109 O   0  0  0  0  0  0  0  0  0  0  0  0
    6.3399   -0.8208   -1.2506 C   0  0  0  0  0  0  0  0  0  0  0  0
   -0.1486   -0.2775   -0.5105 C   0  0  0  0  0  0  0  0  0  0  0  0
   -1.1442    0.7665   -0.0383 C   0  0  0  0  0  0  0  0  0  0  0  0
   -2.5017    0.3812   -0.1563 C   0  0  0  0  0  0  0  0  0  0  0  0
   -2.8576   -0.8720   -0.5894 O   0  0  0  0  0  0  0  0  0  0  0  0
   -1.9912   -1.9735   -0.2658 C   0  0  0  0  0  0  0  0  0  0  0  0
   -0.5720   -1.5772    0.1808 C   0  0  0  0  0  0  0  0  0  0  0  0
   -2.6802   -2.7867    0.8375 C   0  0  0  0  0  0  0  0  0  0  0  0
   -1.9216   -2.8314   -1.5394 C   0  0  0  0  0  0  0  0  0  0  0  0
   -4.2595    3.4485    0.7463 O   0  0  0  0  0  0  0  0  0  0  0  0
   -5.1475   -0.1790    0.3066 H   0  0  0  0  0  0  0  0  0  0  0  0
   -5.6968    1.4810    0.4257 H   0  0  0  0  0  0  0  0  0  0  0  0
   -5.2317    0.8335   -1.1602 H   0  0  0  0  0  0  0  0  0  0  0  0
   -1.7045    3.9488    1.0487 H   0  0  0  0  0  0  0  0  0  0  0  0
    0.4541    3.4158    1.4252 H   0  0  0  0  0  0  0  0  0  0  0  0
    1.0117    2.8836   -0.1554 H   0  0  0  0  0  0  0  0  0  0  0  0
    0.7453    0.8726    2.1807 H   0  0  0  0  0  0  0  0  0  0  0  0
    2.0643    2.0195    2.1527 H   0  0  0  0  0  0  0  0  0  0  0  0
    1.5947   -1.4693   -2.1317 H   0  0  0  0  0  0  0  0  0  0  0  0
    4.0153   -1.4857   -2.1397 H   0  0  0  0  0  0  0  0  0  0  0  0
    5.1226    1.1423    1.2283 H   0  0  0  0  0  0  0  0  0  0  0  0
    6.1439   -1.8944   -1.1611 H   0  0  0  0  0  0  0  0  0  0  0  0
    7.3969   -0.6552   -1.0210 H   0  0  0  0  0  0  0  0  0  0  0  0
    6.1618   -0.4686   -2.2720 H   0  0  0  0  0  0  0  0  0  0  0  0
   -0.3545   -0.3551   -1.5898 H   0  0  0  0  0  0  0  0  0  0  0  0
   -0.5448   -1.4256    1.2704 H   0  0  0  0  0  0  0  0  0  0  0  0
    0.1245   -2.4031   -0.0141 H   0  0  0  0  0  0  0  0  0  0  0  0
   -2.8089   -2.1821    1.7427 H   0  0  0  0  0  0  0  0  0  0  0  0
   -2.1066   -3.6824    1.0975 H   0  0  0  0  0  0  0  0  0  0  0  0
   -3.6859   -3.0942    0.5283 H   0  0  0  0  0  0  0  0  0  0  0  0
   -1.3325   -3.7415   -1.3847 H   0  0  0  0  0  0  0  0  0  0  0  0
   -2.9259   -3.1236   -1.8683 H   0  0  0  0  0  0  0  0  0  0  0  0
   -1.4796   -2.2702   -2.3699 H   0  0  0  0  0  0  0  0  0  0  0  0
   -3.8727    4.3027    0.9967 H   0  0  0  0  0  0  0  0  0  0  0  0
  1  2  1  0
  2  3  1  0
  3  4  2  0
  4  5  1  0
  5  6  1  0
  6  7  1  0
  7  8  1  0
  8  9  2  0
  9 10  1  0
 10 11  2  0
 11 12  1  0
 12 13  2  0
 13 14  1  0
 12 15  1  0
 15 16  1  0
  9 17  1  0
 17 18  1  0
 18 19  1  0
 19 20  1  0
 20 21  1  0
 21 22  1  0
 21 23  1  0
 21 24  1  0
  3 25  1  0
 19  2  2  0
 18  5  2  0
 13  8  1  0
 22 17  1  0
  1 26  1  0
  1 27  1  0
  1 28  1  0
  4 29  1  0
  6 30  1  0
  6 31  1  0
  7 32  1  0
  7 33  1  0
 10 34  1  0
 11 35  1  0
 14 36  1  0
 16 37  1  0
 16 38  1  0
 16 39  1  0
 17 40  1  0
 22 41  1  0
 22 42  1  0
 23 43  1  0
 23 44  1  0
 23 45  1  0
 24 46  1  0
 24 47  1  0
 24 48  1  0
 25 49  1  0
M  END
>  <Name>  (510) 
Racemosol

>  <PubChem ID>  (510) 
624971

>  <CDB ID>  (510) 
CDB0510

>  <Smiles>  (510) 
CC1=C(C=C2CCC3=C(C=CC(=C3O)OC)C4C2=C1OC(C4)(C)C)O

>  <Chemical class>  (510) 
5,7-Dioxygenated Coumarins

>  <Natural source>  (510) 
Mesua racemosa

>  <Molecular Formula>  (510) 
C21H24O4

>  <InChI-Key>  (510) 
PXUNBQVWLWLIHU-OAHLLOKOSA-N

>  <Total Molweight>  (510) 
340.418

>  <cLogP>  (510) 
3.8492

>  <cLogS>  (510) 
-4.211

>  <H-Acceptors>  (510) 
4

>  <H-Donors>  (510) 
2

>  <Rotatable Bonds>  (510) 
1

>  <Polar Surface Area>  (510) 
58.92

$$$$
CDB0511
     RDKit          3D

 56 58  0  0  0  0  0  0  0  0999 V2000
   -4.2227   -1.7552   -0.7241 C   0  0  0  0  0  0  0  0  0  0  0  0
   -3.2020   -2.7958   -0.2791 C   0  0  0  0  0  0  0  0  0  0  0  0
   -2.8026   -2.7131    1.2053 C   0  0  2  0  0  0  0  0  0  0  0  0
   -4.0080   -2.9524    2.1225 C   0  0  0  0  0  0  0  0  0  0  0  0
   -2.1168   -1.3878    1.5597 C   0  0  0  0  0  0  0  0  0  0  0  0
   -2.5352   -0.6477    2.4555 O   0  0  0  0  0  0  0  0  0  0  0  0
   -0.9484   -0.8892    0.7743 C   0  0  0  0  0  0  0  0  0  0  0  0
    0.0870   -1.7337    0.3459 C   0  0  0  0  0  0  0  0  0  0  0  0
    0.0688   -3.0433    0.7405 O   0  0  0  0  0  0  0  0  0  0  0  0
    1.1317   -1.2375   -0.4490 C   0  0  0  0  0  0  0  0  0  0  0  0
    2.2512   -2.1167   -0.9711 C   0  0  0  0  0  0  0  0  0  0  0  0
    3.4265   -2.1558   -0.0302 C   0  0  0  0  0  0  0  0  0  0  0  0
    4.6819   -1.7153   -0.2496 C   0  0  0  0  0  0  0  0  0  0  0  0
    5.1768   -1.0706   -1.5166 C   0  0  0  0  0  0  0  0  0  0  0  0
    5.7335   -1.8321    0.8247 C   0  0  0  0  0  0  0  0  0  0  0  0
    1.1302    0.1428   -0.7485 C   0  0  0  0  0  0  0  0  0  0  0  0
    2.2058    0.6101   -1.5417 O   0  0  0  0  0  0  0  0  0  0  0  0
    2.3530    1.9366   -1.8906 C   0  0  0  0  0  0  0  0  0  0  0  0
    3.2908    2.3361   -2.5699 O   0  0  0  0  0  0  0  0  0  0  0  0
    1.3186    2.8526   -1.4091 C   0  0  0  0  0  0  0  0  0  0  0  0
    0.2703    2.4639   -0.6644 C   0  0  0  0  0  0  0  0  0  0  0  0
   -0.6433    3.5654   -0.2960 C   0  0  0  0  0  0  0  0  0  0  0  0
   -1.7162    3.9038   -1.1314 C   0  0  0  0  0  0  0  0  0  0  0  0
   -2.5603    4.9644   -0.7969 C   0  0  0  0  0  0  0  0  0  0  0  0
   -2.3362    5.6937    0.3703 C   0  0  0  0  0  0  0  0  0  0  0  0
   -1.2699    5.3640    1.2061 C   0  0  0  0  0  0  0  0  0  0  0  0
   -0.4238    4.3041    0.8746 C   0  0  0  0  0  0  0  0  0  0  0  0
    0.1450    1.0325   -0.3005 C   0  0  0  0  0  0  0  0  0  0  0  0
   -0.8943    0.4913    0.4752 C   0  0  0  0  0  0  0  0  0  0  0  0
   -1.8759    1.3339    0.9411 O   0  0  0  0  0  0  0  0  0  0  0  0
   -4.4110   -1.8554   -1.7981 H   0  0  0  0  0  0  0  0  0  0  0  0
   -5.1795   -1.8853   -0.2103 H   0  0  0  0  0  0  0  0  0  0  0  0
   -3.8668   -0.7370   -0.5422 H   0  0  0  0  0  0  0  0  0  0  0  0
   -3.6128   -3.7929   -0.4818 H   0  0  0  0  0  0  0  0  0  0  0  0
   -2.3153   -2.7008   -0.9153 H   0  0  0  0  0  0  0  0  0  0  0  0
   -2.1038   -3.5256    1.4268 H   0  0  0  0  0  0  0  0  0  0  0  0
   -4.7371   -2.1375    2.0644 H   0  0  0  0  0  0  0  0  0  0  0  0
   -4.5153   -3.8882    1.8659 H   0  0  0  0  0  0  0  0  0  0  0  0
   -3.6859   -3.0232    3.1677 H   0  0  0  0  0  0  0  0  0  0  0  0
    0.9598   -3.4272    0.6928 H   0  0  0  0  0  0  0  0  0  0  0  0
    1.8860   -3.1406   -1.1181 H   0  0  0  0  0  0  0  0  0  0  0  0
    2.5261   -1.7996   -1.9813 H   0  0  0  0  0  0  0  0  0  0  0  0
    3.2131   -2.5976    0.9428 H   0  0  0  0  0  0  0  0  0  0  0  0
    5.5071   -0.0468   -1.3115 H   0  0  0  0  0  0  0  0  0  0  0  0
    4.4263   -1.0199   -2.3070 H   0  0  0  0  0  0  0  0  0  0  0  0
    6.0275   -1.6333   -1.9156 H   0  0  0  0  0  0  0  0  0  0  0  0
    5.3466   -2.2963    1.7380 H   0  0  0  0  0  0  0  0  0  0  0  0
    6.5704   -2.4430    0.4708 H   0  0  0  0  0  0  0  0  0  0  0  0
    6.1137   -0.8407    1.0919 H   0  0  0  0  0  0  0  0  0  0  0  0
    1.4668    3.8863   -1.7062 H   0  0  0  0  0  0  0  0  0  0  0  0
   -1.9049    3.3378   -2.0400 H   0  0  0  0  0  0  0  0  0  0  0  0
   -3.3954    5.2180   -1.4444 H   0  0  0  0  0  0  0  0  0  0  0  0
   -2.9968    6.5164    0.6317 H   0  0  0  0  0  0  0  0  0  0  0  0
   -1.0996    5.9289    2.1187 H   0  0  0  0  0  0  0  0  0  0  0  0
    0.4003    4.0520    1.5372 H   0  0  0  0  0  0  0  0  0  0  0  0
   -2.3352    0.9021    1.6962 H   0  0  0  0  0  0  0  0  0  0  0  0
  1  2  1  0
  2  3  1  0
  3  4  1  0
  3  5  1  0
  5  6  2  0
  5  7  1  0
  7  8  1  0
  8  9  1  0
  8 10  2  0
 10 11  1  0
 11 12  1  0
 12 13  2  3
 13 14  1  0
 13 15  1  0
 10 16  1  0
 16 17  1  0
 17 18  1  0
 18 19  2  0
 18 20  1  0
 20 21  2  0
 21 22  1  0
 22 23  2  0
 23 24  1  0
 24 25  2  0
 25 26  1  0
 26 27  2  0
 21 28  1  0
 28 29  1  0
 29 30  1  0
 29  7  2  0
 28 16  2  0
 27 22  1  0
  1 31  1  0
  1 32  1  0
  1 33  1  0
  2 34  1  0
  2 35  1  0
  3 36  1  1
  4 37  1  0
  4 38  1  0
  4 39  1  0
  9 40  1  0
 11 41  1  0
 11 42  1  0
 12 43  1  0
 14 44  1  0
 14 45  1  0
 14 46  1  0
 15 47  1  0
 15 48  1  0
 15 49  1  0
 20 50  1  0
 23 51  1  0
 24 52  1  0
 25 53  1  0
 26 54  1  0
 27 55  1  0
 30 56  1  0
M  END
>  <Name>  (511) 
Mab 1

>  <PubChem ID>  (511) 
6483317

>  <CDB ID>  (511) 
CDB0511

>  <Smiles>  (511) 
CC[C@H](C)C(=O)C1=C(O)C(CC=C(C)C)=C2OC(=O)C=C(C3=CC=CC=C3)C2=C1O

>  <Chemical class>  (511) 
5,7-Dioxygenated Coumarins

>  <Natural source>  (511) 
Mammea americana

>  <Molecular Formula>  (511) 
C25H26O5

>  <InChI-Key>  (511) 
YALRCXHVQYBSJC-HNNXBMFYSA-N

>  <Total Molweight>  (511) 
406.476

>  <cLogP>  (511) 
5.3249

>  <cLogS>  (511) 
-5.306

>  <H-Acceptors>  (511) 
5

>  <H-Donors>  (511) 
2

>  <Rotatable Bonds>  (511) 
6

>  <Polar Surface Area>  (511) 
83.83

$$$$
CDB0512
     RDKit          3D

 57 59  0  0  0  0  0  0  0  0999 V2000
   -1.0867    6.0100   -0.5418 C   0  0  0  0  0  0  0  0  0  0  0  0
   -0.0379    4.9373   -0.8015 C   0  0  0  0  0  0  0  0  0  0  0  0
   -0.5239    3.5042   -0.4905 C   0  0  0  0  0  0  0  0  0  0  0  0
   -0.8110    3.3280    1.0016 C   0  0  0  0  0  0  0  0  0  0  0  0
    0.5280    2.4867   -0.9548 C   0  0  0  0  0  0  0  0  0  0  0  0
    1.6133    2.8394   -1.4296 O   0  0  0  0  0  0  0  0  0  0  0  0
    0.3257    1.0133   -0.7794 C   0  0  0  0  0  0  0  0  0  0  0  0
    1.4547    0.2204   -0.4621 C   0  0  0  0  0  0  0  0  0  0  0  0
    1.3423   -1.1622   -0.2224 C   0  0  0  0  0  0  0  0  0  0  0  0
    0.0686   -1.7297   -0.3562 C   0  0  0  0  0  0  0  0  0  0  0  0
   -1.0709   -0.9900   -0.7267 C   0  0  0  0  0  0  0  0  0  0  0  0
   -0.9257    0.3955   -0.9077 C   0  0  0  0  0  0  0  0  0  0  0  0
   -2.0215    1.1460   -1.2353 O   0  0  0  0  0  0  0  0  0  0  0  0
   -2.4084   -1.6841   -0.9382 C   0  0  0  0  0  0  0  0  0  0  0  0
   -3.3645   -1.4874    0.2540 C   0  0  0  0  0  0  0  0  0  0  0  0
   -4.5894   -2.3835    0.2775 C   0  0  0  0  0  0  0  0  0  0  0  0
   -5.1503   -2.9322   -0.8145 C   0  0  0  0  0  0  0  0  0  0  0  0
   -5.1611   -2.6589    1.6448 C   0  0  0  0  0  0  0  0  0  0  0  0
   -3.8188   -0.1233    0.2344 O   0  0  0  0  0  0  0  0  0  0  0  0
   -0.1318   -3.1086   -0.1132 O   0  0  0  0  0  0  0  0  0  0  0  0
    0.8960   -3.9536    0.2540 C   0  0  0  0  0  0  0  0  0  0  0  0
    0.7158   -5.1437    0.4805 O   0  0  0  0  0  0  0  0  0  0  0  0
    2.2254   -3.3526    0.3620 C   0  0  0  0  0  0  0  0  0  0  0  0
    2.4713   -2.0498    0.1462 C   0  0  0  0  0  0  0  0  0  0  0  0
    3.8916   -1.6753    0.3087 C   0  0  0  0  0  0  0  0  0  0  0  0
    4.3866   -1.3033    1.5659 C   0  0  0  0  0  0  0  0  0  0  0  0
    5.7358   -0.9806    1.7229 C   0  0  0  0  0  0  0  0  0  0  0  0
    6.5977   -1.0303    0.6278 C   0  0  0  0  0  0  0  0  0  0  0  0
    6.1130   -1.4006   -0.6261 C   0  0  0  0  0  0  0  0  0  0  0  0
    4.7644   -1.7242   -0.7866 C   0  0  0  0  0  0  0  0  0  0  0  0
    2.6979    0.8003   -0.3604 O   0  0  0  0  0  0  0  0  0  0  0  0
   -0.7199    6.9826   -0.8857 H   0  0  0  0  0  0  0  0  0  0  0  0
   -1.3130    6.1030    0.5241 H   0  0  0  0  0  0  0  0  0  0  0  0
   -2.0154    5.7904   -1.0775 H   0  0  0  0  0  0  0  0  0  0  0  0
    0.2515    4.9984   -1.8586 H   0  0  0  0  0  0  0  0  0  0  0  0
    0.8638    5.1666   -0.2197 H   0  0  0  0  0  0  0  0  0  0  0  0
   -1.4367    3.3552   -1.0728 H   0  0  0  0  0  0  0  0  0  0  0  0
   -1.1365    2.3108    1.2392 H   0  0  0  0  0  0  0  0  0  0  0  0
   -1.6054    4.0006    1.3381 H   0  0  0  0  0  0  0  0  0  0  0  0
    0.0848    3.5297    1.5994 H   0  0  0  0  0  0  0  0  0  0  0  0
   -2.8132    0.7557   -0.7982 H   0  0  0  0  0  0  0  0  0  0  0  0
   -2.8505   -1.2849   -1.8611 H   0  0  0  0  0  0  0  0  0  0  0  0
   -2.2496   -2.7524   -1.1257 H   0  0  0  0  0  0  0  0  0  0  0  0
   -2.8023   -1.6323    1.1852 H   0  0  0  0  0  0  0  0  0  0  0  0
   -6.0225   -3.5767   -0.7419 H   0  0  0  0  0  0  0  0  0  0  0  0
   -4.7719   -2.7550   -1.8164 H   0  0  0  0  0  0  0  0  0  0  0  0
   -4.4151   -3.1556    2.2738 H   0  0  0  0  0  0  0  0  0  0  0  0
   -6.0426   -3.3075    1.6015 H   0  0  0  0  0  0  0  0  0  0  0  0
   -5.4611   -1.7256    2.1315 H   0  0  0  0  0  0  0  0  0  0  0  0
   -4.6213   -0.0828    0.7863 H   0  0  0  0  0  0  0  0  0  0  0  0
    3.0094   -4.0528    0.6342 H   0  0  0  0  0  0  0  0  0  0  0  0
    3.7228   -1.2535    2.4251 H   0  0  0  0  0  0  0  0  0  0  0  0
    6.1130   -0.6851    2.6983 H   0  0  0  0  0  0  0  0  0  0  0  0
    7.6468   -0.7740    0.7502 H   0  0  0  0  0  0  0  0  0  0  0  0
    6.7837   -1.4324   -1.4807 H   0  0  0  0  0  0  0  0  0  0  0  0
    4.3965   -2.0043   -1.7705 H   0  0  0  0  0  0  0  0  0  0  0  0
    2.6788    1.6746   -0.8115 H   0  0  0  0  0  0  0  0  0  0  0  0
  1  2  1  0
  2  3  1  0
  3  4  1  0
  3  5  1  0
  5  6  2  0
  5  7  1  0
  7  8  2  0
  8  9  1  0
  9 10  2  0
 10 11  1  0
 11 12  2  0
 12 13  1  0
 11 14  1  0
 14 15  1  0
 15 16  1  0
 16 17  2  0
 16 18  1  0
 15 19  1  0
 10 20  1  0
 20 21  1  0
 21 22  2  0
 21 23  1  0
 23 24  2  0
 24 25  1  0
 25 26  2  0
 26 27  1  0
 27 28  2  0
 28 29  1  0
 29 30  2  0
  8 31  1  0
 12  7  1  0
 24  9  1  0
 30 25  1  0
  1 32  1  0
  1 33  1  0
  1 34  1  0
  2 35  1  0
  2 36  1  0
  3 37  1  0
  4 38  1  0
  4 39  1  0
  4 40  1  0
 13 41  1  0
 14 42  1  0
 14 43  1  0
 15 44  1  0
 17 45  1  0
 17 46  1  0
 18 47  1  0
 18 48  1  0
 18 49  1  0
 19 50  1  0
 23 51  1  0
 26 52  1  0
 27 53  1  0
 28 54  1  0
 29 55  1  0
 30 56  1  0
 31 57  1  0
M  END
>  <Name>  (512) 
Disparinol B

>  <PubChem ID>  (512) 
10047855

>  <CDB ID>  (512) 
CDB0512

>  <Smiles>  (512) 
CCC(C)C(=O)C1=C(C2=C(C(=C1O)CC(C(=C)C)O)OC(=O)C=C2C3=CC=CC=C3)O

>  <Chemical class>  (512) 
5,7-Dioxygenated Coumarins

>  <Natural source>  (512) 
Calophyllum dispar

>  <Molecular Formula>  (512) 
C25H26O6

>  <InChI-Key>  (512) 
ZJEGMYRKQKKGKH-UHFFFAOYSA-N

>  <Total Molweight>  (512) 
422.475

>  <cLogP>  (512) 
4.3698

>  <cLogS>  (512) 
-5.074

>  <H-Acceptors>  (512) 
6

>  <H-Donors>  (512) 
3

>  <Rotatable Bonds>  (512) 
7

>  <Polar Surface Area>  (512) 
104.06

$$$$
CDB0513
     RDKit          3D

 54 56  0  0  0  0  0  0  0  0999 V2000
   -5.3626   -2.5541   -0.0180 C   0  0  0  0  0  0  0  0  0  0  0  0
   -4.0430   -2.7781    0.1166 C   0  0  0  0  0  0  0  0  0  0  0  0
   -3.5317   -4.1454    0.4870 C   0  0  0  0  0  0  0  0  0  0  0  0
   -2.9736   -1.7233   -0.1228 C   0  0  1  0  0  0  0  0  0  0  0  0
   -3.5354   -0.6519   -0.8926 O   0  0  0  0  0  0  0  0  0  0  0  0
   -2.3879   -1.1838    1.1987 C   0  0  0  0  0  0  0  0  0  0  0  0
   -0.9921   -0.6051    1.0001 C   0  0  0  0  0  0  0  0  0  0  0  0
    0.1416   -1.3931    1.2420 C   0  0  0  0  0  0  0  0  0  0  0  0
   -0.0734   -2.6863    1.6528 O   0  0  0  0  0  0  0  0  0  0  0  0
    1.4349   -0.8804    1.0571 C   0  0  0  0  0  0  0  0  0  0  0  0
    2.5969   -1.7866    1.3060 C   0  0  0  0  0  0  0  0  0  0  0  0
    2.4407   -2.7011    2.1185 O   0  0  0  0  0  0  0  0  0  0  0  0
    3.8918   -1.6015    0.5352 C   0  0  0  0  0  0  0  0  0  0  0  0
    4.6668   -2.9140    0.4162 C   0  0  0  0  0  0  0  0  0  0  0  0
    5.9367   -2.7388   -0.4005 C   0  0  0  0  0  0  0  0  0  0  0  0
    1.5700    0.4556    0.6419 C   0  0  0  0  0  0  0  0  0  0  0  0
    2.8791    0.9825    0.5634 O   0  0  0  0  0  0  0  0  0  0  0  0
    3.1532    2.2716    0.1568 C   0  0  0  0  0  0  0  0  0  0  0  0
    4.2910    2.7193    0.1135 O   0  0  0  0  0  0  0  0  0  0  0  0
    2.0006    3.0760   -0.2440 C   0  0  0  0  0  0  0  0  0  0  0  0
    0.7305    2.6450   -0.1667 C   0  0  0  0  0  0  0  0  0  0  0  0
   -0.2548    3.6157   -0.6858 C   0  0  0  0  0  0  0  0  0  0  0  0
   -0.6025    4.7484    0.0647 C   0  0  0  0  0  0  0  0  0  0  0  0
   -1.5503    5.6495   -0.4223 C   0  0  0  0  0  0  0  0  0  0  0  0
   -2.1544    5.4265   -1.6588 C   0  0  0  0  0  0  0  0  0  0  0  0
   -1.8109    4.3050   -2.4124 C   0  0  0  0  0  0  0  0  0  0  0  0
   -0.8622    3.4022   -1.9302 C   0  0  0  0  0  0  0  0  0  0  0  0
    0.4652    1.2768    0.3493 C   0  0  0  0  0  0  0  0  0  0  0  0
   -0.8142    0.7174    0.5464 C   0  0  0  0  0  0  0  0  0  0  0  0
   -1.9782    1.3999    0.2975 O   0  0  0  0  0  0  0  0  0  0  0  0
   -6.0966   -3.3363    0.1447 H   0  0  0  0  0  0  0  0  0  0  0  0
   -5.7416   -1.5770   -0.3038 H   0  0  0  0  0  0  0  0  0  0  0  0
   -4.3431   -4.8745    0.5865 H   0  0  0  0  0  0  0  0  0  0  0  0
   -2.8487   -4.5167   -0.2841 H   0  0  0  0  0  0  0  0  0  0  0  0
   -2.9967   -4.1172    1.4408 H   0  0  0  0  0  0  0  0  0  0  0  0
   -2.1867   -2.1657   -0.7458 H   0  0  0  0  0  0  0  0  0  0  0  0
   -3.0385    0.1567   -0.6629 H   0  0  0  0  0  0  0  0  0  0  0  0
   -3.0422   -0.4102    1.6222 H   0  0  0  0  0  0  0  0  0  0  0  0
   -2.3438   -1.9642    1.9668 H   0  0  0  0  0  0  0  0  0  0  0  0
    0.7727   -3.0467    2.0065 H   0  0  0  0  0  0  0  0  0  0  0  0
    4.5058   -0.8636    1.0620 H   0  0  0  0  0  0  0  0  0  0  0  0
    3.6639   -1.2362   -0.4721 H   0  0  0  0  0  0  0  0  0  0  0  0
    4.0357   -3.6789   -0.0520 H   0  0  0  0  0  0  0  0  0  0  0  0
    4.9294   -3.2871    1.4134 H   0  0  0  0  0  0  0  0  0  0  0  0
    5.7066   -2.4040   -1.4170 H   0  0  0  0  0  0  0  0  0  0  0  0
    6.6017   -2.0023    0.0619 H   0  0  0  0  0  0  0  0  0  0  0  0
    6.4769   -3.6882   -0.4699 H   0  0  0  0  0  0  0  0  0  0  0  0
    2.2621    4.0580   -0.6281 H   0  0  0  0  0  0  0  0  0  0  0  0
   -0.1420    4.9369    1.0326 H   0  0  0  0  0  0  0  0  0  0  0  0
   -1.8181    6.5275    0.1611 H   0  0  0  0  0  0  0  0  0  0  0  0
   -2.8935    6.1288   -2.0376 H   0  0  0  0  0  0  0  0  0  0  0  0
   -2.2842    4.1324   -3.3763 H   0  0  0  0  0  0  0  0  0  0  0  0
   -0.6100    2.5288   -2.5285 H   0  0  0  0  0  0  0  0  0  0  0  0
   -1.8408    2.3515    0.4450 H   0  0  0  0  0  0  0  0  0  0  0  0
  1  2  2  0
  2  3  1  0
  2  4  1  0
  4  5  1  0
  4  6  1  0
  6  7  1  0
  7  8  2  0
  8  9  1  0
  8 10  1  0
 10 11  1  0
 11 12  2  0
 11 13  1  0
 13 14  1  0
 14 15  1  0
 10 16  2  0
 16 17  1  0
 17 18  1  0
 18 19  2  0
 18 20  1  0
 20 21  2  0
 21 22  1  0
 22 23  2  0
 23 24  1  0
 24 25  2  0
 25 26  1  0
 26 27  2  0
 21 28  1  0
 28 29  2  0
 29 30  1  0
 29  7  1  0
 28 16  1  0
 27 22  1  0
  1 31  1  0
  1 32  1  0
  3 33  1  0
  3 34  1  0
  3 35  1  0
  4 36  1  6
  5 37  1  0
  6 38  1  0
  6 39  1  0
  9 40  1  0
 13 41  1  0
 13 42  1  0
 14 43  1  0
 14 44  1  0
 15 45  1  0
 15 46  1  0
 15 47  1  0
 20 48  1  0
 23 49  1  0
 24 50  1  0
 25 51  1  0
 26 52  1  0
 27 53  1  0
 30 54  1  0
M  END
>  <Name>  (513) 
Isoracemosol

>  <PubChem ID>  (513) 
15407043

>  <CDB ID>  (513) 
CDB0513

>  <Smiles>  (513) 
C=C(C)[C@@H](O)CC1=C(O)C(C(=O)CCC)=C2OC(=O)C=C(C3=CC=CC=C3)C2=C1O

>  <Chemical class>  (513) 
5,7-Dioxygenated Coumarins

>  <Natural source>  (513) 
Mesua racemosa

>  <Molecular Formula>  (513) 
C24H24O6

>  <InChI-Key>  (513) 
XSNRTHHONWPPCD-SFHVURJKSA-N

>  <Total Molweight>  (513) 
408.449

>  <cLogP>  (513) 
4.1515

>  <cLogS>  (513) 
-4.914

>  <H-Acceptors>  (513) 
6

>  <H-Donors>  (513) 
3

>  <Rotatable Bonds>  (513) 
7

>  <Polar Surface Area>  (513) 
104.06

$$$$
CDB0514
     RDKit          3D

 57 59  0  0  0  0  0  0  0  0999 V2000
    5.1480    1.1289   -0.8965 C   0  0  0  0  0  0  0  0  0  0  0  0
    3.8543    0.8671   -0.1351 C   0  0  0  0  0  0  0  0  0  0  0  0
    4.0842    0.6003    1.3607 C   0  0  0  0  0  0  0  0  0  0  0  0
    4.5884    1.8189    2.1299 C   0  0  0  0  0  0  0  0  0  0  0  0
    2.9178   -0.0614    2.1010 C   0  0  0  0  0  0  0  0  0  0  0  0
    3.1109   -0.7438    3.1127 O   0  0  0  0  0  0  0  0  0  0  0  0
    1.5275   -0.0338    1.5877 C   0  0  0  0  0  0  0  0  0  0  0  0
    0.8525   -1.2562    1.4655 C   0  0  0  0  0  0  0  0  0  0  0  0
   -0.4436   -1.3144    0.9396 C   0  0  0  0  0  0  0  0  0  0  0  0
   -1.0516   -0.1095    0.5281 C   0  0  0  0  0  0  0  0  0  0  0  0
   -0.4320    1.1436    0.7087 C   0  0  0  0  0  0  0  0  0  0  0  0
    0.8580    1.1487    1.2560 C   0  0  0  0  0  0  0  0  0  0  0  0
    1.5161    2.3653    1.5245 O   0  0  0  0  0  0  0  0  0  0  0  0
    0.9594    3.5924    1.2214 C   0  0  0  0  0  0  0  0  0  0  0  0
    1.5434    4.6463    1.4395 O   0  0  0  0  0  0  0  0  0  0  0  0
   -0.3678    3.5719    0.6069 C   0  0  0  0  0  0  0  0  0  0  0  0
   -1.0479    2.4428    0.3492 C   0  0  0  0  0  0  0  0  0  0  0  0
   -2.3668    2.6669   -0.2782 C   0  0  0  0  0  0  0  0  0  0  0  0
   -3.5121    2.8129    0.5157 C   0  0  0  0  0  0  0  0  0  0  0  0
   -4.7522    3.0567   -0.0774 C   0  0  0  0  0  0  0  0  0  0  0  0
   -4.8550    3.1594   -1.4643 C   0  0  0  0  0  0  0  0  0  0  0  0
   -3.7197    3.0165   -2.2612 C   0  0  0  0  0  0  0  0  0  0  0  0
   -2.4781    2.7720   -1.6714 C   0  0  0  0  0  0  0  0  0  0  0  0
   -2.2914   -0.1624   -0.0538 O   0  0  0  0  0  0  0  0  0  0  0  0
   -1.1745   -2.6434    0.8381 C   0  0  0  0  0  0  0  0  0  0  0  0
   -1.1304   -3.2179   -0.5866 C   0  0  0  0  0  0  0  0  0  0  0  0
   -1.6011   -4.6552   -0.6683 C   0  0  0  0  0  0  0  0  0  0  0  0
   -0.7975   -5.6322   -1.1232 C   0  0  0  0  0  0  0  0  0  0  0  0
   -3.0088   -4.9530   -0.2251 C   0  0  0  0  0  0  0  0  0  0  0  0
   -1.9838   -2.4315   -1.4319 O   0  0  0  0  0  0  0  0  0  0  0  0
    1.4404   -2.4341    1.8566 O   0  0  0  0  0  0  0  0  0  0  0  0
    5.6385    2.0430   -0.5493 H   0  0  0  0  0  0  0  0  0  0  0  0
    4.9367    1.2499   -1.9639 H   0  0  0  0  0  0  0  0  0  0  0  0
    5.8475    0.2947   -0.7836 H   0  0  0  0  0  0  0  0  0  0  0  0
    3.3592    0.0017   -0.5924 H   0  0  0  0  0  0  0  0  0  0  0  0
    3.1929    1.7258   -0.2849 H   0  0  0  0  0  0  0  0  0  0  0  0
    4.8777   -0.1609    1.4118 H   0  0  0  0  0  0  0  0  0  0  0  0
    4.6122    1.6268    3.2081 H   0  0  0  0  0  0  0  0  0  0  0  0
    3.9581    2.6963    1.9652 H   0  0  0  0  0  0  0  0  0  0  0  0
    5.6054    2.0814    1.8210 H   0  0  0  0  0  0  0  0  0  0  0  0
   -0.7656    4.5547    0.3724 H   0  0  0  0  0  0  0  0  0  0  0  0
   -3.4454    2.7261    1.5973 H   0  0  0  0  0  0  0  0  0  0  0  0
   -5.6383    3.1613    0.5431 H   0  0  0  0  0  0  0  0  0  0  0  0
   -5.8219    3.3462   -1.9243 H   0  0  0  0  0  0  0  0  0  0  0  0
   -3.8018    3.0923   -3.3421 H   0  0  0  0  0  0  0  0  0  0  0  0
   -1.6010    2.6580   -2.3031 H   0  0  0  0  0  0  0  0  0  0  0  0
   -2.3483   -0.9775   -0.6003 H   0  0  0  0  0  0  0  0  0  0  0  0
   -0.7527   -3.3624    1.5506 H   0  0  0  0  0  0  0  0  0  0  0  0
   -2.2115   -2.4837    1.1626 H   0  0  0  0  0  0  0  0  0  0  0  0
   -0.1137   -3.1263   -0.9894 H   0  0  0  0  0  0  0  0  0  0  0  0
    0.2221   -5.4332   -1.4414 H   0  0  0  0  0  0  0  0  0  0  0  0
   -1.1322   -6.6642   -1.1811 H   0  0  0  0  0  0  0  0  0  0  0  0
   -3.1338   -4.7321    0.8393 H   0  0  0  0  0  0  0  0  0  0  0  0
   -3.2697   -6.0064   -0.3739 H   0  0  0  0  0  0  0  0  0  0  0  0
   -3.7278   -4.3549   -0.7936 H   0  0  0  0  0  0  0  0  0  0  0  0
   -2.0076   -2.8976   -2.2890 H   0  0  0  0  0  0  0  0  0  0  0  0
    2.1342   -2.2208    2.5218 H   0  0  0  0  0  0  0  0  0  0  0  0
  1  2  1  0
  2  3  1  0
  3  4  1  0
  3  5  1  0
  5  6  2  0
  5  7  1  0
  7  8  1  0
  8  9  2  0
  9 10  1  0
 10 11  2  0
 11 12  1  0
 12 13  1  0
 13 14  1  0
 14 15  2  0
 14 16  1  0
 16 17  2  0
 17 18  1  0
 18 19  2  0
 19 20  1  0
 20 21  2  0
 21 22  1  0
 22 23  2  0
 10 24  1  0
  9 25  1  0
 25 26  1  0
 26 27  1  0
 27 28  2  0
 27 29  1  0
 26 30  1  0
  8 31  1  0
 12  7  2  0
 17 11  1  0
 23 18  1  0
  1 32  1  0
  1 33  1  0
  1 34  1  0
  2 35  1  0
  2 36  1  0
  3 37  1  0
  4 38  1  0
  4 39  1  0
  4 40  1  0
 16 41  1  0
 19 42  1  0
 20 43  1  0
 21 44  1  0
 22 45  1  0
 23 46  1  0
 24 47  1  0
 25 48  1  0
 25 49  1  0
 26 50  1  0
 28 51  1  0
 28 52  1  0
 29 53  1  0
 29 54  1  0
 29 55  1  0
 30 56  1  0
 31 57  1  0
M  END
>  <Name>  (514) 
Isodisparinol B

>  <PubChem ID>  (514) 
100926911

>  <CDB ID>  (514) 
CDB0514

>  <Smiles>  (514) 
CCC(C)C(=O)C1=C(C(=C(C2=C1OC(=O)C=C2C3=CC=CC=C3)O)CC(C(=C)C)O)O

>  <Chemical class>  (514) 
5,7-Dioxygenated Coumarins

>  <Natural source>  (514) 
Calophyllum dispar

>  <Molecular Formula>  (514) 
C25H26O6

>  <InChI-Key>  (514) 
RAIZTULKRWIEBV-UHFFFAOYSA-N

>  <Total Molweight>  (514) 
422.475

>  <cLogP>  (514) 
4.3698

>  <cLogS>  (514) 
-5.074

>  <H-Acceptors>  (514) 
6

>  <H-Donors>  (514) 
3

>  <Rotatable Bonds>  (514) 
7

>  <Polar Surface Area>  (514) 
104.06

$$$$
CDB0515
     RDKit          3D

 57 59  0  0  0  0  0  0  0  0999 V2000
    5.4023   -1.6847    1.6046 C   0  0  0  0  0  0  0  0  0  0  0  0
    4.8141   -1.8063    0.4009 C   0  0  0  0  0  0  0  0  0  0  0  0
    5.6462   -2.1321   -0.8148 C   0  0  0  0  0  0  0  0  0  0  0  0
    3.3289   -1.6463    0.1271 C   0  0  1  0  0  0  0  0  0  0  0  0
    2.8552   -2.9331   -0.2728 O   0  0  0  0  0  0  0  0  0  0  0  0
    2.4849   -1.0653    1.2842 C   0  0  0  0  0  0  0  0  0  0  0  0
    1.1179   -0.5870    0.8161 C   0  0  0  0  0  0  0  0  0  0  0  0
    0.0578   -1.5021    0.7228 C   0  0  0  0  0  0  0  0  0  0  0  0
    0.3370   -2.8141    1.0332 O   0  0  0  0  0  0  0  0  0  0  0  0
   -1.2242   -1.1024    0.3168 C   0  0  0  0  0  0  0  0  0  0  0  0
   -2.2773   -2.1459    0.1994 C   0  0  0  0  0  0  0  0  0  0  0  0
   -2.2550   -3.0496    1.0378 O   0  0  0  0  0  0  0  0  0  0  0  0
   -3.2008   -2.1730   -1.0100 C   0  0  0  0  0  0  0  0  0  0  0  0
   -4.6750   -2.4882   -0.7059 C   0  0  0  0  0  0  0  0  0  0  0  0
   -5.2955   -1.5061    0.2861 C   0  0  0  0  0  0  0  0  0  0  0  0
   -4.8932   -3.9305   -0.2453 C   0  0  0  0  0  0  0  0  0  0  0  0
   -1.4530    0.2550    0.0625 C   0  0  0  0  0  0  0  0  0  0  0  0
   -2.7778    0.6552   -0.2109 O   0  0  0  0  0  0  0  0  0  0  0  0
   -3.1233    1.9646   -0.4815 C   0  0  0  0  0  0  0  0  0  0  0  0
   -4.2750    2.2999   -0.7256 O   0  0  0  0  0  0  0  0  0  0  0  0
   -2.0318    2.9373   -0.4772 C   0  0  0  0  0  0  0  0  0  0  0  0
   -0.7564    2.6183   -0.2026 C   0  0  0  0  0  0  0  0  0  0  0  0
    0.1736    3.7648   -0.2737 C   0  0  0  0  0  0  0  0  0  0  0  0
    0.4091    4.5572    0.8577 C   0  0  0  0  0  0  0  0  0  0  0  0
    1.2665    5.6563    0.7799 C   0  0  0  0  0  0  0  0  0  0  0  0
    1.8894    5.9720   -0.4271 C   0  0  0  0  0  0  0  0  0  0  0  0
    1.6583    5.1898   -1.5581 C   0  0  0  0  0  0  0  0  0  0  0  0
    0.8019    4.0896   -1.4838 C   0  0  0  0  0  0  0  0  0  0  0  0
   -0.4249    1.2082    0.1203 C   0  0  0  0  0  0  0  0  0  0  0  0
    0.8653    0.7577    0.4782 C   0  0  0  0  0  0  0  0  0  0  0  0
    1.8840    1.6715    0.5200 O   0  0  0  0  0  0  0  0  0  0  0  0
    4.8484   -1.4763    2.5133 H   0  0  0  0  0  0  0  0  0  0  0  0
    6.4740   -1.8216    1.7231 H   0  0  0  0  0  0  0  0  0  0  0  0
    5.5327   -1.3498   -1.5725 H   0  0  0  0  0  0  0  0  0  0  0  0
    6.7129   -2.2081   -0.5775 H   0  0  0  0  0  0  0  0  0  0  0  0
    5.3367   -3.0875   -1.2502 H   0  0  0  0  0  0  0  0  0  0  0  0
    3.2220   -0.9839   -0.7416 H   0  0  0  0  0  0  0  0  0  0  0  0
    2.0150   -3.1074    0.1954 H   0  0  0  0  0  0  0  0  0  0  0  0
    3.0022   -0.2277    1.7666 H   0  0  0  0  0  0  0  0  0  0  0  0
    2.3516   -1.8141    2.0763 H   0  0  0  0  0  0  0  0  0  0  0  0
   -0.5185   -3.2677    1.2277 H   0  0  0  0  0  0  0  0  0  0  0  0
   -2.7970   -2.9358   -1.6887 H   0  0  0  0  0  0  0  0  0  0  0  0
   -3.1438   -1.2358   -1.5689 H   0  0  0  0  0  0  0  0  0  0  0  0
   -5.2185   -2.3790   -1.6543 H   0  0  0  0  0  0  0  0  0  0  0  0
   -6.3569   -1.7303    0.4380 H   0  0  0  0  0  0  0  0  0  0  0  0
   -4.8031   -1.5482    1.2628 H   0  0  0  0  0  0  0  0  0  0  0  0
   -5.2286   -0.4808   -0.0892 H   0  0  0  0  0  0  0  0  0  0  0  0
   -4.5034   -4.1058    0.7614 H   0  0  0  0  0  0  0  0  0  0  0  0
   -5.9633   -4.1650   -0.2245 H   0  0  0  0  0  0  0  0  0  0  0  0
   -4.4129   -4.6376   -0.9295 H   0  0  0  0  0  0  0  0  0  0  0  0
   -2.3377    3.9509   -0.7189 H   0  0  0  0  0  0  0  0  0  0  0  0
   -0.0660    4.3173    1.8058 H   0  0  0  0  0  0  0  0  0  0  0  0
    1.4499    6.2645    1.6619 H   0  0  0  0  0  0  0  0  0  0  0  0
    2.5572    6.8278   -0.4856 H   0  0  0  0  0  0  0  0  0  0  0  0
    2.1452    5.4366   -2.4979 H   0  0  0  0  0  0  0  0  0  0  0  0
    0.6307    3.4868   -2.3721 H   0  0  0  0  0  0  0  0  0  0  0  0
    2.7419    1.2476    0.3647 H   0  0  0  0  0  0  0  0  0  0  0  0
  1  2  2  0
  2  3  1  0
  2  4  1  0
  4  5  1  0
  4  6  1  0
  6  7  1  0
  7  8  2  0
  8  9  1  0
  8 10  1  0
 10 11  1  0
 11 12  2  0
 11 13  1  0
 13 14  1  0
 14 15  1  0
 14 16  1  0
 10 17  2  0
 17 18  1  0
 18 19  1  0
 19 20  2  0
 19 21  1  0
 21 22  2  0
 22 23  1  0
 23 24  2  0
 24 25  1  0
 25 26  2  0
 26 27  1  0
 27 28  2  0
 22 29  1  0
 29 30  2  0
 30 31  1  0
 30  7  1  0
 29 17  1  0
 28 23  1  0
  1 32  1  0
  1 33  1  0
  3 34  1  0
  3 35  1  0
  3 36  1  0
  4 37  1  6
  5 38  1  0
  6 39  1  0
  6 40  1  0
  9 41  1  0
 13 42  1  0
 13 43  1  0
 14 44  1  0
 15 45  1  0
 15 46  1  0
 15 47  1  0
 16 48  1  0
 16 49  1  0
 16 50  1  0
 21 51  1  0
 24 52  1  0
 25 53  1  0
 26 54  1  0
 27 55  1  0
 28 56  1  0
 31 57  1  0
M  END
>  <Name>  (515) 
Isodisparinol A

>  <PubChem ID>  (515) 
100926910

>  <CDB ID>  (515) 
CDB0515

>  <Smiles>  (515) 
C=C(C)[C@@H](O)CC1=C(O)C(C(=O)CC(C)C)=C2OC(=O)C=C(C3=CC=CC=C3)C2=C1O

>  <Chemical class>  (515) 
5,7-Dioxygenated Coumarins

>  <Natural source>  (515) 
Calophyllum dispar

>  <Molecular Formula>  (515) 
C25H26O6

>  <InChI-Key>  (515) 
ITJOJKQNAUALSC-SFHVURJKSA-N

>  <Total Molweight>  (515) 
422.475

>  <cLogP>  (515) 
4.3698

>  <cLogS>  (515) 
-5.074

>  <H-Acceptors>  (515) 
6

>  <H-Donors>  (515) 
3

>  <Rotatable Bonds>  (515) 
7

>  <Polar Surface Area>  (515) 
104.06

$$$$
CDB0516
     RDKit          3D

 57 59  0  0  0  0  0  0  0  0999 V2000
    5.5102   -3.7535   -0.5163 C   0  0  0  0  0  0  0  0  0  0  0  0
    4.1972   -3.8015   -0.2245 C   0  0  0  0  0  0  0  0  0  0  0  0
    3.4831   -5.1287   -0.1826 C   0  0  0  0  0  0  0  0  0  0  0  0
    3.3471   -2.5910    0.1385 C   0  0  1  0  0  0  0  0  0  0  0  0
    4.1867   -1.4446    0.3235 O   0  0  0  0  0  0  0  0  0  0  0  0
    2.2731   -2.2801   -0.9251 C   0  0  0  0  0  0  0  0  0  0  0  0
    1.3057   -1.2072   -0.4600 C   0  0  0  0  0  0  0  0  0  0  0  0
    1.5106    0.1497   -0.7674 C   0  0  0  0  0  0  0  0  0  0  0  0
    2.6552    0.4365   -1.5485 O   0  0  0  0  0  0  0  0  0  0  0  0
    3.0120    1.7208   -1.8953 C   0  0  0  0  0  0  0  0  0  0  0  0
    4.0291    1.9733   -2.5284 O   0  0  0  0  0  0  0  0  0  0  0  0
    2.0888    2.7798   -1.4871 C   0  0  0  0  0  0  0  0  0  0  0  0
    0.9840    2.5664   -0.7523 C   0  0  0  0  0  0  0  0  0  0  0  0
    0.1769    3.7843   -0.5324 C   0  0  0  0  0  0  0  0  0  0  0  0
   -1.0255    3.9652   -1.2282 C   0  0  0  0  0  0  0  0  0  0  0  0
   -1.7999    5.1050   -1.0073 C   0  0  0  0  0  0  0  0  0  0  0  0
   -1.3775    6.0705   -0.0945 C   0  0  0  0  0  0  0  0  0  0  0  0
   -0.1798    5.9007    0.5984 C   0  0  0  0  0  0  0  0  0  0  0  0
    0.5974    4.7621    0.3811 C   0  0  0  0  0  0  0  0  0  0  0  0
    0.6677    1.1803   -0.3176 C   0  0  0  0  0  0  0  0  0  0  0  0
   -0.4209    0.8042    0.5015 C   0  0  0  0  0  0  0  0  0  0  0  0
   -1.2417    1.7307    1.0913 O   0  0  0  0  0  0  0  0  0  0  0  0
   -0.6829   -0.5501    0.7924 C   0  0  0  0  0  0  0  0  0  0  0  0
   -1.8668   -0.9894    1.5893 C   0  0  0  0  0  0  0  0  0  0  0  0
   -1.7473   -2.0061    2.2778 O   0  0  0  0  0  0  0  0  0  0  0  0
   -3.1783   -0.2274    1.4851 C   0  0  0  0  0  0  0  0  0  0  0  0
   -4.4070   -1.1372    1.6596 C   0  0  0  0  0  0  0  0  0  0  0  0
   -5.6701   -0.2873    1.8103 C   0  0  0  0  0  0  0  0  0  0  0  0
   -4.5644   -2.0957    0.4764 C   0  0  0  0  0  0  0  0  0  0  0  0
    0.2055   -1.5387    0.3351 C   0  0  0  0  0  0  0  0  0  0  0  0
    0.0448   -2.8659    0.6533 O   0  0  0  0  0  0  0  0  0  0  0  0
    6.0746   -4.6526   -0.7454 H   0  0  0  0  0  0  0  0  0  0  0  0
    6.0695   -2.8235   -0.5162 H   0  0  0  0  0  0  0  0  0  0  0  0
    2.7387   -5.1961   -0.9813 H   0  0  0  0  0  0  0  0  0  0  0  0
    2.9775   -5.2590    0.7799 H   0  0  0  0  0  0  0  0  0  0  0  0
    4.1729   -5.9709   -0.3055 H   0  0  0  0  0  0  0  0  0  0  0  0
    2.8786   -2.7824    1.1112 H   0  0  0  0  0  0  0  0  0  0  0  0
    4.4687   -1.1558   -0.5613 H   0  0  0  0  0  0  0  0  0  0  0  0
    1.6990   -3.1774   -1.1845 H   0  0  0  0  0  0  0  0  0  0  0  0
    2.7484   -1.9681   -1.8638 H   0  0  0  0  0  0  0  0  0  0  0  0
    2.3667    3.7650   -1.8506 H   0  0  0  0  0  0  0  0  0  0  0  0
   -1.3698    3.2194   -1.9419 H   0  0  0  0  0  0  0  0  0  0  0  0
   -2.7334    5.2408   -1.5483 H   0  0  0  0  0  0  0  0  0  0  0  0
   -1.9816    6.9591    0.0741 H   0  0  0  0  0  0  0  0  0  0  0  0
    0.1495    6.6580    1.3061 H   0  0  0  0  0  0  0  0  0  0  0  0
    1.5300    4.6450    0.9302 H   0  0  0  0  0  0  0  0  0  0  0  0
   -0.7761    2.5778    1.1931 H   0  0  0  0  0  0  0  0  0  0  0  0
   -3.1728    0.5331    2.2747 H   0  0  0  0  0  0  0  0  0  0  0  0
   -3.2428    0.2739    0.5127 H   0  0  0  0  0  0  0  0  0  0  0  0
   -4.2933   -1.7356    2.5722 H   0  0  0  0  0  0  0  0  0  0  0  0
   -5.5919    0.3748    2.6790 H   0  0  0  0  0  0  0  0  0  0  0  0
   -5.8400    0.3340    0.9243 H   0  0  0  0  0  0  0  0  0  0  0  0
   -6.5513   -0.9218    1.9534 H   0  0  0  0  0  0  0  0  0  0  0  0
   -3.6945   -2.7527    0.3777 H   0  0  0  0  0  0  0  0  0  0  0  0
   -4.6836   -1.5486   -0.4651 H   0  0  0  0  0  0  0  0  0  0  0  0
   -5.4452   -2.7329    0.6096 H   0  0  0  0  0  0  0  0  0  0  0  0
   -0.6107   -2.9287    1.3866 H   0  0  0  0  0  0  0  0  0  0  0  0
  1  2  2  0
  2  3  1  0
  2  4  1  0
  4  5  1  0
  4  6  1  0
  6  7  1  0
  7  8  1  0
  8  9  1  0
  9 10  1  0
 10 11  2  0
 10 12  1  0
 12 13  2  0
 13 14  1  0
 14 15  2  0
 15 16  1  0
 16 17  2  0
 17 18  1  0
 18 19  2  0
 13 20  1  0
 20 21  1  0
 21 22  1  0
 21 23  2  0
 23 24  1  0
 24 25  2  0
 24 26  1  0
 26 27  1  0
 27 28  1  0
 27 29  1  0
 23 30  1  0
 30 31  1  0
 30  7  2  0
 20  8  2  0
 19 14  1  0
  1 32  1  0
  1 33  1  0
  3 34  1  0
  3 35  1  0
  3 36  1  0
  4 37  1  1
  5 38  1  0
  6 39  1  0
  6 40  1  0
 12 41  1  0
 15 42  1  0
 16 43  1  0
 17 44  1  0
 18 45  1  0
 19 46  1  0
 22 47  1  0
 26 48  1  0
 26 49  1  0
 27 50  1  0
 28 51  1  0
 28 52  1  0
 28 53  1  0
 29 54  1  0
 29 55  1  0
 29 56  1  0
 31 57  1  0
M  END
>  <Name>  (516) 
Disparinol A

>  <PubChem ID>  (516) 
6483321

>  <CDB ID>  (516) 
CDB0516

>  <Smiles>  (516) 
C=C(C)[C@@H](O)CC1=C2OC(=O)C=C(C3=CC=CC=C3)C2=C(O)C(C(=O)CC(C)C)=C1O

>  <Chemical class>  (516) 
5,7-Dioxygenated Coumarins

>  <Natural source>  (516) 
Calophyllum dispar

>  <Molecular Formula>  (516) 
C25H26O6

>  <InChI-Key>  (516) 
IQMQJKCHMGXLEU-SFHVURJKSA-N

>  <Total Molweight>  (516) 
422.475

>  <cLogP>  (516) 
4.3698

>  <cLogS>  (516) 
-5.074

>  <H-Acceptors>  (516) 
6

>  <H-Donors>  (516) 
3

>  <Rotatable Bonds>  (516) 
7

>  <Polar Surface Area>  (516) 
104.06

$$$$
CDB0517
     RDKit          3D

 42 45  0  0  0  0  0  0  0  0999 V2000
   -4.5328   -2.4839    0.4794 C   0  0  0  0  0  0  0  0  0  0  0  0
   -4.6290   -1.6141   -0.7666 C   0  0  0  0  0  0  0  0  0  0  0  0
   -3.7651   -0.3545   -0.6733 C   0  0  0  0  0  0  0  0  0  0  0  0
   -2.2771   -0.6364   -0.7973 C   0  0  0  0  0  0  0  0  0  0  0  0
   -1.8427   -1.7234   -1.1847 O   0  0  0  0  0  0  0  0  0  0  0  0
   -1.2842    0.4124   -0.4433 C   0  0  0  0  0  0  0  0  0  0  0  0
   -1.6316    1.7525   -0.2603 C   0  0  0  0  0  0  0  0  0  0  0  0
   -0.7197    2.7455    0.0805 C   0  0  0  0  0  0  0  0  0  0  0  0
    0.6302    2.3909    0.2508 C   0  0  0  0  0  0  0  0  0  0  0  0
    1.0611    1.0657    0.0728 C   0  0  0  0  0  0  0  0  0  0  0  0
    0.0918    0.0985   -0.2783 C   0  0  0  0  0  0  0  0  0  0  0  0
    0.5160   -1.1998   -0.4564 O   0  0  0  0  0  0  0  0  0  0  0  0
    2.5050    0.7796    0.2636 C   0  0  0  0  0  0  0  0  0  0  0  0
    3.3262    1.7892    0.5977 C   0  0  0  0  0  0  0  0  0  0  0  0
    2.8810    3.1705    0.7872 C   0  0  0  0  0  0  0  0  0  0  0  0
    3.6713    4.0545    1.0942 O   0  0  0  0  0  0  0  0  0  0  0  0
    1.5360    3.4143    0.6011 O   0  0  0  0  0  0  0  0  0  0  0  0
    3.1891   -0.5235    0.1281 C   0  0  0  0  0  0  0  0  0  0  0  0
    3.7288   -0.9137   -1.1050 C   0  0  0  0  0  0  0  0  0  0  0  0
    4.4025   -2.1306   -1.2241 C   0  0  0  0  0  0  0  0  0  0  0  0
    4.5440   -2.9620   -0.1136 C   0  0  0  0  0  0  0  0  0  0  0  0
    4.0115   -2.5799    1.1172 C   0  0  0  0  0  0  0  0  0  0  0  0
    3.3371   -1.3637    1.2399 C   0  0  0  0  0  0  0  0  0  0  0  0
   -1.4621    3.9552    0.1711 C   0  0  0  0  0  0  0  0  0  0  0  0
   -2.7636    3.6333   -0.1243 C   0  0  0  0  0  0  0  0  0  0  0  0
   -2.8737    2.3077   -0.3884 O   0  0  0  0  0  0  0  0  0  0  0  0
   -3.5142   -2.8503    0.6371 H   0  0  0  0  0  0  0  0  0  0  0  0
   -5.1914   -3.3529    0.3830 H   0  0  0  0  0  0  0  0  0  0  0  0
   -4.8383   -1.9261    1.3705 H   0  0  0  0  0  0  0  0  0  0  0  0
   -4.3556   -2.2061   -1.6476 H   0  0  0  0  0  0  0  0  0  0  0  0
   -5.6751   -1.3123   -0.8969 H   0  0  0  0  0  0  0  0  0  0  0  0
   -3.9668    0.1435    0.2808 H   0  0  0  0  0  0  0  0  0  0  0  0
   -4.0434    0.3120   -1.4973 H   0  0  0  0  0  0  0  0  0  0  0  0
   -0.2252   -1.7446   -0.8057 H   0  0  0  0  0  0  0  0  0  0  0  0
    4.3912    1.6424    0.7508 H   0  0  0  0  0  0  0  0  0  0  0  0
    3.6194   -0.2770   -1.9793 H   0  0  0  0  0  0  0  0  0  0  0  0
    4.8126   -2.4319   -2.1844 H   0  0  0  0  0  0  0  0  0  0  0  0
    5.0651   -3.9111   -0.2088 H   0  0  0  0  0  0  0  0  0  0  0  0
    4.1171   -3.2312    1.9808 H   0  0  0  0  0  0  0  0  0  0  0  0
    2.9208   -1.0797    2.2031 H   0  0  0  0  0  0  0  0  0  0  0  0
   -1.0849    4.9384    0.4178 H   0  0  0  0  0  0  0  0  0  0  0  0
   -3.6811    4.2030   -0.1874 H   0  0  0  0  0  0  0  0  0  0  0  0
  1  2  1  0
  2  3  1  0
  3  4  1  0
  4  5  2  0
  4  6  1  0
  6  7  2  0
  7  8  1  0
  8  9  2  0
  9 10  1  0
 10 11  2  0
 11 12  1  0
 10 13  1  0
 13 14  2  0
 14 15  1  0
 15 16  2  0
 15 17  1  0
 13 18  1  0
 18 19  2  0
 19 20  1  0
 20 21  2  0
 21 22  1  0
 22 23  2  0
  8 24  1  0
 24 25  2  0
 25 26  1  0
 11  6  1  0
 26  7  1  0
 17  9  1  0
 23 18  1  0
  1 27  1  0
  1 28  1  0
  1 29  1  0
  2 30  1  0
  2 31  1  0
  3 32  1  0
  3 33  1  0
 12 34  1  0
 14 35  1  0
 19 36  1  0
 20 37  1  0
 21 38  1  0
 22 39  1  0
 23 40  1  0
 24 41  1  0
 25 42  1  0
M  END
>  <Name>  (517) 
Furanoracemosone

>  <PubChem ID>  (517) 
15407041

>  <CDB ID>  (517) 
CDB0517

>  <Smiles>  (517) 
CCCC(=O)C1=C2C(=C3C(=C1O)C(=CC(=O)O3)C4=CC=CC=C4)C=CO2

>  <Chemical class>  (517) 
5,7-Dioxygenated Coumarins

>  <Natural source>  (517) 
Mesua racemosa

>  <Molecular Formula>  (517) 
C21H16O5

>  <InChI-Key>  (517) 
WUIYLXXBSXOSSJ-UHFFFAOYSA-N

>  <Total Molweight>  (517) 
348.353

>  <cLogP>  (517) 
3.8814

>  <cLogS>  (517) 
-5.662

>  <H-Acceptors>  (517) 
5

>  <H-Donors>  (517) 
1

>  <Rotatable Bonds>  (517) 
4

>  <Polar Surface Area>  (517) 
76.74

$$$$
CDB0518
     RDKit          3D

 57 60  0  0  0  0  0  0  0  0999 V2000
   -3.4889   -4.7603    0.3053 C   0  0  0  0  0  0  0  0  0  0  0  0
   -2.8342   -3.5391   -0.3372 C   0  0  0  0  0  0  0  0  0  0  0  0
   -3.3814   -2.2162    0.1929 C   0  0  0  0  0  0  0  0  0  0  0  0
   -2.7963   -1.1345   -0.5467 O   0  0  0  0  0  0  0  0  0  0  0  0
   -1.4263   -1.0890   -0.4761 C   0  0  0  0  0  0  0  0  0  0  0  0
   -0.8265    0.1616   -0.7091 C   0  0  0  0  0  0  0  0  0  0  0  0
    0.5823    0.2554   -0.6604 C   0  0  0  0  0  0  0  0  0  0  0  0
    1.3909   -0.8436   -0.2963 C   0  0  0  0  0  0  0  0  0  0  0  0
    2.8575   -0.7690   -0.0676 C   0  0  0  0  0  0  0  0  0  0  0  0
    3.5229   -1.9072    0.1895 C   0  0  0  0  0  0  0  0  0  0  0  0
    2.8886   -3.2245    0.2512 C   0  0  0  0  0  0  0  0  0  0  0  0
    3.5588   -4.2361    0.4161 O   0  0  0  0  0  0  0  0  0  0  0  0
    1.5156   -3.2396    0.1346 O   0  0  0  0  0  0  0  0  0  0  0  0
    0.7500   -2.0797   -0.1236 C   0  0  0  0  0  0  0  0  0  0  0  0
   -0.6450   -2.2194   -0.2219 C   0  0  0  0  0  0  0  0  0  0  0  0
   -1.3377   -3.5295   -0.0749 C   0  0  0  0  0  0  0  0  0  0  0  0
   -0.7234   -4.5540    0.2007 O   0  0  0  0  0  0  0  0  0  0  0  0
    3.6956    0.4502    0.0144 C   0  0  0  0  0  0  0  0  0  0  0  0
    4.6994    0.6992   -0.9340 C   0  0  0  0  0  0  0  0  0  0  0  0
    5.4939    1.8435   -0.8387 C   0  0  0  0  0  0  0  0  0  0  0  0
    5.2949    2.7458    0.2049 C   0  0  0  0  0  0  0  0  0  0  0  0
    4.3034    2.5058    1.1548 C   0  0  0  0  0  0  0  0  0  0  0  0
    3.5086    1.3615    1.0627 C   0  0  0  0  0  0  0  0  0  0  0  0
    1.1497    1.4768   -0.9332 O   0  0  0  0  0  0  0  0  0  0  0  0
    1.4988    1.5702   -2.3177 C   0  0  0  0  0  0  0  0  0  0  0  0
   -1.6893    1.3928   -0.9248 C   0  0  0  0  0  0  0  0  0  0  0  0
   -2.1970    1.9648    0.3742 C   0  0  0  0  0  0  0  0  0  0  0  0
   -1.8083    3.0937    0.9999 C   0  0  0  0  0  0  0  0  0  0  0  0
   -0.7361    4.0312    0.5172 C   0  0  0  0  0  0  0  0  0  0  0  0
   -2.4451    3.5051    2.3020 C   0  0  0  0  0  0  0  0  0  0  0  0
   -4.8914   -2.0750    0.0238 C   0  0  0  0  0  0  0  0  0  0  0  0
   -3.3984   -4.7306    1.3968 H   0  0  0  0  0  0  0  0  0  0  0  0
   -4.5502   -4.8266    0.0480 H   0  0  0  0  0  0  0  0  0  0  0  0
   -3.0169   -5.6871   -0.0394 H   0  0  0  0  0  0  0  0  0  0  0  0
   -2.9579   -3.5984   -1.4267 H   0  0  0  0  0  0  0  0  0  0  0  0
   -3.1431   -2.0806    1.2577 H   0  0  0  0  0  0  0  0  0  0  0  0
    4.5891   -1.9259    0.3942 H   0  0  0  0  0  0  0  0  0  0  0  0
    4.8660    0.0064   -1.7557 H   0  0  0  0  0  0  0  0  0  0  0  0
    6.2684    2.0307   -1.5780 H   0  0  0  0  0  0  0  0  0  0  0  0
    5.9128    3.6371    0.2788 H   0  0  0  0  0  0  0  0  0  0  0  0
    4.1460    3.2101    1.9675 H   0  0  0  0  0  0  0  0  0  0  0  0
    2.7350    1.1911    1.8082 H   0  0  0  0  0  0  0  0  0  0  0  0
    2.0543    2.5020   -2.4595 H   0  0  0  0  0  0  0  0  0  0  0  0
    2.1364    0.7398   -2.6389 H   0  0  0  0  0  0  0  0  0  0  0  0
    0.6028    1.6100   -2.9456 H   0  0  0  0  0  0  0  0  0  0  0  0
   -2.5518    1.1306   -1.5516 H   0  0  0  0  0  0  0  0  0  0  0  0
   -1.1633    2.1437   -1.5186 H   0  0  0  0  0  0  0  0  0  0  0  0
   -2.9873    1.3699    0.8322 H   0  0  0  0  0  0  0  0  0  0  0  0
   -1.1439    5.0414    0.4051 H   0  0  0  0  0  0  0  0  0  0  0  0
    0.0832    4.0691    1.2429 H   0  0  0  0  0  0  0  0  0  0  0  0
   -0.3077    3.7489   -0.4457 H   0  0  0  0  0  0  0  0  0  0  0  0
   -3.2139    2.7982    2.6314 H   0  0  0  0  0  0  0  0  0  0  0  0
   -1.6887    3.5645    3.0915 H   0  0  0  0  0  0  0  0  0  0  0  0
   -2.9190    4.4867    2.1986 H   0  0  0  0  0  0  0  0  0  0  0  0
   -5.2113   -1.0622    0.2940 H   0  0  0  0  0  0  0  0  0  0  0  0
   -5.1844   -2.2278   -1.0208 H   0  0  0  0  0  0  0  0  0  0  0  0
   -5.4404   -2.7819    0.6519 H   0  0  0  0  0  0  0  0  0  0  0  0
  1  2  1  0
  2  3  1  0
  3  4  1  0
  4  5  1  0
  5  6  2  0
  6  7  1  0
  7  8  2  0
  8  9  1  0
  9 10  2  0
 10 11  1  0
 11 12  2  0
 11 13  1  0
 13 14  1  0
 14 15  2  0
 15 16  1  0
 16 17  2  0
  9 18  1  0
 18 19  2  0
 19 20  1  0
 20 21  2  0
 21 22  1  0
 22 23  2  0
  7 24  1  0
 24 25  1  0
  6 26  1  0
 26 27  1  0
 27 28  2  3
 28 29  1  0
 28 30  1  0
  3 31  1  0
 16  2  1  0
 15  5  1  0
 14  8  1  0
 23 18  1  0
  1 32  1  0
  1 33  1  0
  1 34  1  0
  2 35  1  0
  3 36  1  0
 10 37  1  0
 19 38  1  0
 20 39  1  0
 21 40  1  0
 22 41  1  0
 23 42  1  0
 25 43  1  0
 25 44  1  0
 25 45  1  0
 26 46  1  0
 26 47  1  0
 27 48  1  0
 29 49  1  0
 29 50  1  0
 29 51  1  0
 30 52  1  0
 30 53  1  0
 30 54  1  0
 31 55  1  0
 31 56  1  0
 31 57  1  0
M  END
>  <Name>  (518) 
Teysmanone B

>  <PubChem ID>  (518) 
15381982

>  <CDB ID>  (518) 
CDB0518

>  <Smiles>  (518) 
CC1C(OC2=C(C(=C3C(=CC(=O)OC3=C2C1=O)C4=CC=CC=C4)OC)CC=C(C)C)C

>  <Chemical class>  (518) 
5,7-Dioxygenated Coumarins

>  <Natural source>  (518) 
Calophyllum teysmannii var. inophylloide

>  <Molecular Formula>  (518) 
C26H26O5

>  <InChI-Key>  (518) 
DJQOFJYLUOKIRR-UHFFFAOYSA-N

>  <Total Molweight>  (518) 
418.487

>  <cLogP>  (518) 
5.559

>  <cLogS>  (518) 
-5.888

>  <H-Acceptors>  (518) 
5

>  <H-Donors>  (518) 
0

>  <Rotatable Bonds>  (518) 
4

>  <Polar Surface Area>  (518) 
61.83

$$$$
CDB0519
     RDKit          3D

 51 54  0  0  0  0  0  0  0  0999 V2000
   -3.4643    2.7413   -0.3401 C   0  0  0  0  0  0  0  0  0  0  0  0
   -2.0823    2.2573   -0.7689 C   0  0  0  0  0  0  0  0  0  0  0  0
   -1.2909    3.3783   -1.4338 C   0  0  0  0  0  0  0  0  0  0  0  0
   -1.3138    1.7433    0.4401 C   0  0  0  0  0  0  0  0  0  0  0  0
   -1.2316    2.3475    1.5067 O   0  0  0  0  0  0  0  0  0  0  0  0
   -0.6198    0.4470    0.2951 C   0  0  0  0  0  0  0  0  0  0  0  0
   -1.3690   -0.7330    0.3371 C   0  0  0  0  0  0  0  0  0  0  0  0
   -0.7133   -1.9597    0.2485 C   0  0  0  0  0  0  0  0  0  0  0  0
    0.6911   -1.9709    0.1223 C   0  0  0  0  0  0  0  0  0  0  0  0
    1.4700   -0.8014    0.0754 C   0  0  0  0  0  0  0  0  0  0  0  0
    0.7799    0.4205    0.1694 C   0  0  0  0  0  0  0  0  0  0  0  0
    1.4104    1.6345    0.1005 O   0  0  0  0  0  0  0  0  0  0  0  0
    2.9366   -0.9483   -0.0913 C   0  0  0  0  0  0  0  0  0  0  0  0
    3.4595   -2.1831   -0.1731 C   0  0  0  0  0  0  0  0  0  0  0  0
    2.6643   -3.4096   -0.1012 C   0  0  0  0  0  0  0  0  0  0  0  0
    3.1932   -4.5119   -0.1668 O   0  0  0  0  0  0  0  0  0  0  0  0
    1.3030   -3.2464    0.0388 O   0  0  0  0  0  0  0  0  0  0  0  0
    3.9378    0.1302   -0.2080 C   0  0  0  0  0  0  0  0  0  0  0  0
    4.7245    0.4880    0.8963 C   0  0  0  0  0  0  0  0  0  0  0  0
    5.6607    1.5171    0.7870 C   0  0  0  0  0  0  0  0  0  0  0  0
    5.8183    2.1912   -0.4232 C   0  0  0  0  0  0  0  0  0  0  0  0
    5.0428    1.8374   -1.5266 C   0  0  0  0  0  0  0  0  0  0  0  0
    4.1059    0.8084   -1.4219 C   0  0  0  0  0  0  0  0  0  0  0  0
   -1.4996   -3.1889    0.2755 C   0  0  0  0  0  0  0  0  0  0  0  0
   -2.8116   -3.0974    0.5097 C   0  0  0  0  0  0  0  0  0  0  0  0
   -3.5174   -1.7834    0.7339 C   0  0  0  0  0  0  0  0  0  0  0  0
   -2.7277   -0.6151    0.4369 O   0  0  0  0  0  0  0  0  0  0  0  0
   -3.9606   -1.6726    2.1969 C   0  0  0  0  0  0  0  0  0  0  0  0
   -4.7422   -1.7027   -0.1848 C   0  0  0  0  0  0  0  0  0  0  0  0
   -3.3969    3.5834    0.3577 H   0  0  0  0  0  0  0  0  0  0  0  0
   -4.0196    1.9419    0.1621 H   0  0  0  0  0  0  0  0  0  0  0  0
   -4.0484    3.0662   -1.2074 H   0  0  0  0  0  0  0  0  0  0  0  0
   -2.2123    1.4428   -1.4913 H   0  0  0  0  0  0  0  0  0  0  0  0
   -0.3130    3.0186   -1.7710 H   0  0  0  0  0  0  0  0  0  0  0  0
   -1.1147    4.2090   -0.7414 H   0  0  0  0  0  0  0  0  0  0  0  0
   -1.8250    3.7686   -2.3064 H   0  0  0  0  0  0  0  0  0  0  0  0
    2.2433    1.5976    0.6010 H   0  0  0  0  0  0  0  0  0  0  0  0
    4.5236   -2.3568   -0.3057 H   0  0  0  0  0  0  0  0  0  0  0  0
    4.6132   -0.0285    1.8477 H   0  0  0  0  0  0  0  0  0  0  0  0
    6.2690    1.7935    1.6450 H   0  0  0  0  0  0  0  0  0  0  0  0
    6.5475    2.9936   -0.5074 H   0  0  0  0  0  0  0  0  0  0  0  0
    5.1663    2.3655   -2.4691 H   0  0  0  0  0  0  0  0  0  0  0  0
    3.5026    0.5482   -2.2891 H   0  0  0  0  0  0  0  0  0  0  0  0
   -1.0173   -4.1493    0.1284 H   0  0  0  0  0  0  0  0  0  0  0  0
   -3.4057   -4.0065    0.5617 H   0  0  0  0  0  0  0  0  0  0  0  0
   -4.4786   -0.7232    2.3763 H   0  0  0  0  0  0  0  0  0  0  0  0
   -4.6295   -2.4909    2.4853 H   0  0  0  0  0  0  0  0  0  0  0  0
   -3.0955   -1.6826    2.8708 H   0  0  0  0  0  0  0  0  0  0  0  0
   -5.4492   -2.5191   -0.0005 H   0  0  0  0  0  0  0  0  0  0  0  0
   -5.2712   -0.7520   -0.0474 H   0  0  0  0  0  0  0  0  0  0  0  0
   -4.4425   -1.7378   -1.2393 H   0  0  0  0  0  0  0  0  0  0  0  0
  1  2  1  0
  2  3  1  0
  2  4  1  0
  4  5  2  0
  4  6  1  0
  6  7  2  0
  7  8  1  0
  8  9  2  0
  9 10  1  0
 10 11  2  0
 11 12  1  0
 10 13  1  0
 13 14  2  0
 14 15  1  0
 15 16  2  0
 15 17  1  0
 13 18  1  0
 18 19  2  0
 19 20  1  0
 20 21  2  0
 21 22  1  0
 22 23  2  0
  8 24  1  0
 24 25  2  0
 25 26  1  0
 26 27  1  0
 26 28  1  0
 26 29  1  0
 11  6  1  0
 27  7  1  0
 17  9  1  0
 23 18  1  0
  1 30  1  0
  1 31  1  0
  1 32  1  0
  2 33  1  0
  3 34  1  0
  3 35  1  0
  3 36  1  0
 12 37  1  0
 14 38  1  0
 19 39  1  0
 20 40  1  0
 21 41  1  0
 22 42  1  0
 23 43  1  0
 24 44  1  0
 25 45  1  0
 28 46  1  0
 28 47  1  0
 28 48  1  0
 29 49  1  0
 29 50  1  0
 29 51  1  0
M  END
>  <Name>  (519) 
Mesuagin

>  <PubChem ID>  (519) 
5319380

>  <CDB ID>  (519) 
CDB0519

>  <Smiles>  (519) 
CC(C)C(=O)C1=C2C(=C3C(=C1O)C(=CC(=O)O3)C4=CC=CC=C4)C=CC(O2)(C)C

>  <Chemical class>  (519) 
5,7-Dioxygenated Coumarins

>  <Natural source>  (519) 
Mesua ferrea

>  <Molecular Formula>  (519) 
C24H22O5

>  <InChI-Key>  (519) 
SVCPILBFQWTZFW-UHFFFAOYSA-N

>  <Total Molweight>  (519) 
390.434

>  <cLogP>  (519) 
4.2204

>  <cLogS>  (519) 
-5.652

>  <H-Acceptors>  (519) 
5

>  <H-Donors>  (519) 
1

>  <Rotatable Bonds>  (519) 
3

>  <Polar Surface Area>  (519) 
72.83

$$$$
CDB0520
     RDKit          3D

 54 57  0  0  0  0  0  0  0  0999 V2000
   -3.4712    2.4323    0.4536 C   0  0  0  0  0  0  0  0  0  0  0  0
   -1.9482    2.4915    0.3881 C   0  0  0  0  0  0  0  0  0  0  0  0
   -1.4419    3.7913    1.0112 C   0  0  0  0  0  0  0  0  0  0  0  0
   -1.3388    1.3063    1.1237 C   0  0  0  0  0  0  0  0  0  0  0  0
   -1.3565    1.1849    2.3461 O   0  0  0  0  0  0  0  0  0  0  0  0
   -0.7121    0.2394    0.3144 C   0  0  0  0  0  0  0  0  0  0  0  0
   -1.4960   -0.8463   -0.0902 C   0  0  0  0  0  0  0  0  0  0  0  0
   -0.9019   -1.9029   -0.7805 C   0  0  0  0  0  0  0  0  0  0  0  0
    0.4893   -1.8743   -0.9968 C   0  0  0  0  0  0  0  0  0  0  0  0
    1.3107   -0.8237   -0.5577 C   0  0  0  0  0  0  0  0  0  0  0  0
    0.6683    0.2795    0.0414 C   0  0  0  0  0  0  0  0  0  0  0  0
    1.3699    1.3938    0.4295 O   0  0  0  0  0  0  0  0  0  0  0  0
    1.5973    2.2743   -0.6744 C   0  0  0  0  0  0  0  0  0  0  0  0
    2.7810   -0.9717   -0.7184 C   0  0  0  0  0  0  0  0  0  0  0  0
    3.2451   -2.0429   -1.3846 C   0  0  0  0  0  0  0  0  0  0  0  0
    2.3878   -3.0745   -1.9698 C   0  0  0  0  0  0  0  0  0  0  0  0
    2.8590   -3.9850   -2.6395 O   0  0  0  0  0  0  0  0  0  0  0  0
    1.0398   -2.9713   -1.7024 O   0  0  0  0  0  0  0  0  0  0  0  0
    3.8423   -0.1237   -0.1247 C   0  0  0  0  0  0  0  0  0  0  0  0
    3.9791   -0.0420    1.2677 C   0  0  0  0  0  0  0  0  0  0  0  0
    4.9832    0.7451    1.8351 C   0  0  0  0  0  0  0  0  0  0  0  0
    5.8635    1.4514    1.0174 C   0  0  0  0  0  0  0  0  0  0  0  0
    5.7420    1.3732   -0.3687 C   0  0  0  0  0  0  0  0  0  0  0  0
    4.7374    0.5884   -0.9387 C   0  0  0  0  0  0  0  0  0  0  0  0
   -1.7371   -3.0053   -1.2482 C   0  0  0  0  0  0  0  0  0  0  0  0
   -3.0096   -3.0496   -0.8434 C   0  0  0  0  0  0  0  0  0  0  0  0
   -3.6174   -2.0025    0.0565 C   0  0  0  0  0  0  0  0  0  0  0  0
   -2.8366   -0.7968    0.1768 O   0  0  0  0  0  0  0  0  0  0  0  0
   -3.8156   -2.5697    1.4665 C   0  0  0  0  0  0  0  0  0  0  0  0
   -4.9698   -1.5645   -0.5183 C   0  0  0  0  0  0  0  0  0  0  0  0
   -3.8545    1.5609   -0.0850 H   0  0  0  0  0  0  0  0  0  0  0  0
   -3.8266    2.3637    1.4876 H   0  0  0  0  0  0  0  0  0  0  0  0
   -3.9166    3.3227   -0.0024 H   0  0  0  0  0  0  0  0  0  0  0  0
   -1.6402    2.4632   -0.6631 H   0  0  0  0  0  0  0  0  0  0  0  0
   -1.7970    4.6577    0.4434 H   0  0  0  0  0  0  0  0  0  0  0  0
   -1.7874    3.9004    2.0454 H   0  0  0  0  0  0  0  0  0  0  0  0
   -0.3479    3.8228    1.0287 H   0  0  0  0  0  0  0  0  0  0  0  0
    2.0303    1.7630   -1.5399 H   0  0  0  0  0  0  0  0  0  0  0  0
    2.2985    3.0474   -0.3469 H   0  0  0  0  0  0  0  0  0  0  0  0
    0.6680    2.7648   -0.9756 H   0  0  0  0  0  0  0  0  0  0  0  0
    4.3064   -2.2338   -1.5133 H   0  0  0  0  0  0  0  0  0  0  0  0
    3.2972   -0.5812    1.9221 H   0  0  0  0  0  0  0  0  0  0  0  0
    5.0742    0.8088    2.9166 H   0  0  0  0  0  0  0  0  0  0  0  0
    6.6439    2.0638    1.4621 H   0  0  0  0  0  0  0  0  0  0  0  0
    6.4299    1.9236   -1.0054 H   0  0  0  0  0  0  0  0  0  0  0  0
    4.6556    0.5422   -2.0222 H   0  0  0  0  0  0  0  0  0  0  0  0
   -1.3168   -3.7784   -1.8824 H   0  0  0  0  0  0  0  0  0  0  0  0
   -3.6360   -3.8839   -1.1487 H   0  0  0  0  0  0  0  0  0  0  0  0
   -4.2570   -1.8172    2.1304 H   0  0  0  0  0  0  0  0  0  0  0  0
   -2.8558   -2.8508    1.9162 H   0  0  0  0  0  0  0  0  0  0  0  0
   -4.4644   -3.4524    1.4646 H   0  0  0  0  0  0  0  0  0  0  0  0
   -4.8456   -1.1153   -1.5111 H   0  0  0  0  0  0  0  0  0  0  0  0
   -5.4305   -0.7944    0.1118 H   0  0  0  0  0  0  0  0  0  0  0  0
   -5.6708   -2.4021   -0.6044 H   0  0  0  0  0  0  0  0  0  0  0  0
  1  2  1  0
  2  3  1  0
  2  4  1  0
  4  5  2  0
  4  6  1  0
  6  7  2  0
  7  8  1  0
  8  9  2  0
  9 10  1  0
 10 11  2  0
 11 12  1  0
 12 13  1  0
 10 14  1  0
 14 15  2  0
 15 16  1  0
 16 17  2  0
 16 18  1  0
 14 19  1  0
 19 20  2  0
 20 21  1  0
 21 22  2  0
 22 23  1  0
 23 24  2  0
  8 25  1  0
 25 26  2  0
 26 27  1  0
 27 28  1  0
 27 29  1  0
 27 30  1  0
 11  6  1  0
 28  7  1  0
 18  9  1  0
 24 19  1  0
  1 31  1  0
  1 32  1  0
  1 33  1  0
  2 34  1  0
  3 35  1  0
  3 36  1  0
  3 37  1  0
 13 38  1  0
 13 39  1  0
 13 40  1  0
 15 41  1  0
 20 42  1  0
 21 43  1  0
 22 44  1  0
 23 45  1  0
 24 46  1  0
 25 47  1  0
 26 48  1  0
 29 49  1  0
 29 50  1  0
 29 51  1  0
 30 52  1  0
 30 53  1  0
 30 54  1  0
M  END
>  <Name>  (520) 
Mesuarin

>  <PubChem ID>  (520) 
52057409

>  <CDB ID>  (520) 
CDB0520

>  <Smiles>  (520) 
CC(C)C(=O)C1=C2C(=C3C(=C1OC)C(=CC(=O)O3)C4=CC=CC=C4)C=CC(O2)(C)C

>  <Chemical class>  (520) 
5,7-Dioxygenated Coumarins

>  <Natural source>  (520) 
Mesua [errea

>  <Molecular Formula>  (520) 
C25H24O5

>  <InChI-Key>  (520) 
YZTNMIZRHXSBOA-UHFFFAOYSA-N

>  <Total Molweight>  (520) 
404.461

>  <cLogP>  (520) 
4.4961

>  <cLogS>  (520) 
-5.966

>  <H-Acceptors>  (520) 
5

>  <H-Donors>  (520) 
0

>  <Rotatable Bonds>  (520) 
4

>  <Polar Surface Area>  (520) 
61.83

$$$$
CDB0521
     RDKit          3D

 54 57  0  0  0  0  0  0  0  0999 V2000
   -4.4497   -1.2412   -2.6982 C   0  0  0  0  0  0  0  0  0  0  0  0
   -3.6508   -1.3981   -1.4033 C   0  0  0  0  0  0  0  0  0  0  0  0
   -4.3775   -0.6948   -0.2562 C   0  0  0  0  0  0  0  0  0  0  0  0
   -2.2270   -0.8532   -1.5935 C   0  0  0  0  0  0  0  0  0  0  0  0
   -1.3065   -1.2211   -0.4414 C   0  0  0  0  0  0  0  0  0  0  0  0
   -1.2950   -2.3484    0.0585 O   0  0  0  0  0  0  0  0  0  0  0  0
   -0.2559   -0.2678    0.0010 C   0  0  0  0  0  0  0  0  0  0  0  0
   -0.5429    1.0784    0.2664 C   0  0  0  0  0  0  0  0  0  0  0  0
    0.4938    1.9424    0.6305 C   0  0  0  0  0  0  0  0  0  0  0  0
    1.8034    1.4328    0.7407 C   0  0  0  0  0  0  0  0  0  0  0  0
    2.1176    0.0853    0.5236 C   0  0  0  0  0  0  0  0  0  0  0  0
    1.0568   -0.7636    0.1657 C   0  0  0  0  0  0  0  0  0  0  0  0
    1.3127   -2.0993   -0.0319 O   0  0  0  0  0  0  0  0  0  0  0  0
    3.5243   -0.3472    0.6937 C   0  0  0  0  0  0  0  0  0  0  0  0
    4.4442    0.5694    1.0372 C   0  0  0  0  0  0  0  0  0  0  0  0
    4.1360    1.9831    1.2566 C   0  0  0  0  0  0  0  0  0  0  0  0
    5.0113    2.7833    1.5623 O   0  0  0  0  0  0  0  0  0  0  0  0
    2.8163    2.3548    1.1014 O   0  0  0  0  0  0  0  0  0  0  0  0
    4.0684   -1.7112    0.5299 C   0  0  0  0  0  0  0  0  0  0  0  0
    4.5590   -2.1326   -0.7132 C   0  0  0  0  0  0  0  0  0  0  0  0
    5.1002   -3.4114   -0.8584 C   0  0  0  0  0  0  0  0  0  0  0  0
    5.1571   -4.2739    0.2358 C   0  0  0  0  0  0  0  0  0  0  0  0
    4.6724   -3.8613    1.4764 C   0  0  0  0  0  0  0  0  0  0  0  0
    4.1307   -2.5832    1.6252 C   0  0  0  0  0  0  0  0  0  0  0  0
    0.1985    3.3465    0.8935 C   0  0  0  0  0  0  0  0  0  0  0  0
   -1.0679    3.7587    0.8095 C   0  0  0  0  0  0  0  0  0  0  0  0
   -2.2117    2.8457    0.4561 C   0  0  0  0  0  0  0  0  0  0  0  0
   -1.8486    1.4758    0.1930 O   0  0  0  0  0  0  0  0  0  0  0  0
   -2.8998    3.3625   -0.8126 C   0  0  0  0  0  0  0  0  0  0  0  0
   -3.2145    2.8151    1.6149 C   0  0  0  0  0  0  0  0  0  0  0  0
   -5.4607   -1.6465   -2.5833 H   0  0  0  0  0  0  0  0  0  0  0  0
   -4.5374   -0.1880   -2.9864 H   0  0  0  0  0  0  0  0  0  0  0  0
   -3.9667   -1.7790   -3.5209 H   0  0  0  0  0  0  0  0  0  0  0  0
   -3.6009   -2.4684   -1.1665 H   0  0  0  0  0  0  0  0  0  0  0  0
   -4.4884    0.3759   -0.4545 H   0  0  0  0  0  0  0  0  0  0  0  0
   -5.3798   -1.1148   -0.1194 H   0  0  0  0  0  0  0  0  0  0  0  0
   -3.8388   -0.8131    0.6892 H   0  0  0  0  0  0  0  0  0  0  0  0
   -1.7779   -1.3055   -2.4876 H   0  0  0  0  0  0  0  0  0  0  0  0
   -2.2490    0.2229   -1.7798 H   0  0  0  0  0  0  0  0  0  0  0  0
    0.4735   -2.6039    0.0595 H   0  0  0  0  0  0  0  0  0  0  0  0
    5.4907    0.3159    1.1767 H   0  0  0  0  0  0  0  0  0  0  0  0
    4.5141   -1.4715   -1.5749 H   0  0  0  0  0  0  0  0  0  0  0  0
    5.4730   -3.7359   -1.8263 H   0  0  0  0  0  0  0  0  0  0  0  0
    5.5750   -5.2707    0.1204 H   0  0  0  0  0  0  0  0  0  0  0  0
    4.7120   -4.5361    2.3273 H   0  0  0  0  0  0  0  0  0  0  0  0
    3.7504   -2.2749    2.5959 H   0  0  0  0  0  0  0  0  0  0  0  0
    0.9975    4.0326    1.1545 H   0  0  0  0  0  0  0  0  0  0  0  0
   -1.2976    4.8031    1.0073 H   0  0  0  0  0  0  0  0  0  0  0  0
   -3.2721    4.3856   -0.6905 H   0  0  0  0  0  0  0  0  0  0  0  0
   -2.2098    3.3465   -1.6649 H   0  0  0  0  0  0  0  0  0  0  0  0
   -3.7440    2.7206   -1.0896 H   0  0  0  0  0  0  0  0  0  0  0  0
   -2.7531    2.4009    2.5196 H   0  0  0  0  0  0  0  0  0  0  0  0
   -3.5998    3.8130    1.8513 H   0  0  0  0  0  0  0  0  0  0  0  0
   -4.0654    2.1655    1.3795 H   0  0  0  0  0  0  0  0  0  0  0  0
  1  2  1  0
  2  3  1  0
  2  4  1  0
  4  5  1  0
  5  6  2  0
  5  7  1  0
  7  8  2  0
  8  9  1  0
  9 10  2  0
 10 11  1  0
 11 12  2  0
 12 13  1  0
 11 14  1  0
 14 15  2  0
 15 16  1  0
 16 17  2  0
 16 18  1  0
 14 19  1  0
 19 20  2  0
 20 21  1  0
 21 22  2  0
 22 23  1  0
 23 24  2  0
  9 25  1  0
 25 26  2  0
 26 27  1  0
 27 28  1  0
 27 29  1  0
 27 30  1  0
 12  7  1  0
 28  8  1  0
 18 10  1  0
 24 19  1  0
  1 31  1  0
  1 32  1  0
  1 33  1  0
  2 34  1  0
  3 35  1  0
  3 36  1  0
  3 37  1  0
  4 38  1  0
  4 39  1  0
 13 40  1  0
 15 41  1  0
 20 42  1  0
 21 43  1  0
 22 44  1  0
 23 45  1  0
 24 46  1  0
 25 47  1  0
 26 48  1  0
 29 49  1  0
 29 50  1  0
 29 51  1  0
 30 52  1  0
 30 53  1  0
 30 54  1  0
M  END
>  <Name>  (521) 
Mammeigin

>  <PubChem ID>  (521) 
5319255

>  <CDB ID>  (521) 
CDB0521

>  <Smiles>  (521) 
CC(C)CC(=O)C1=C2C(=C3C(=C1O)C(=CC(=O)O3)C4=CC=CC=C4)C=CC(O2)(C)C

>  <Chemical class>  (521) 
5,7-Dioxygenated Coumarins

>  <Natural source>  (521) 
Mammea americana

>  <Molecular Formula>  (521) 
C25H24O5

>  <InChI-Key>  (521) 
VSDJRZADBKXDHP-UHFFFAOYSA-N

>  <Total Molweight>  (521) 
404.461

>  <cLogP>  (521) 
4.6748

>  <cLogS>  (521) 
-5.922

>  <H-Acceptors>  (521) 
5

>  <H-Donors>  (521) 
1

>  <Rotatable Bonds>  (521) 
4

>  <Polar Surface Area>  (521) 
72.83

$$$$
CDB0522
     RDKit          3D

 55 58  0  0  0  0  0  0  0  0999 V2000
    3.5444   -3.3762   -0.0159 C   0  0  0  0  0  0  0  0  0  0  0  0
    3.2719   -2.2534   -1.0182 C   0  0  2  0  0  0  0  0  0  0  0  0
    4.3056   -1.1272   -0.9109 C   0  0  0  0  0  0  0  0  0  0  0  0
    4.3143   -0.5418    0.3770 O   0  0  0  0  0  0  0  0  0  0  0  0
    1.8201   -1.7481   -0.9821 C   0  0  0  0  0  0  0  0  0  0  0  0
    1.2944   -1.1891    0.3297 C   0  0  0  0  0  0  0  0  0  0  0  0
    1.5565   -1.6297    1.4444 O   0  0  0  0  0  0  0  0  0  0  0  0
    0.2730   -0.1259    0.2225 C   0  0  0  0  0  0  0  0  0  0  0  0
    0.6641    1.1986    0.0122 C   0  0  0  0  0  0  0  0  0  0  0  0
    1.9930    1.4510   -0.1904 O   0  0  0  0  0  0  0  0  0  0  0  0
    2.4671    2.8036   -0.0392 C   0  0  0  0  0  0  0  0  0  0  0  0
    3.0613    2.9397    1.3673 C   0  0  0  0  0  0  0  0  0  0  0  0
    3.5752    2.9749   -1.0854 C   0  0  0  0  0  0  0  0  0  0  0  0
    1.4106    3.8581   -0.2605 C   0  0  0  0  0  0  0  0  0  0  0  0
    0.1038    3.5796   -0.2691 C   0  0  0  0  0  0  0  0  0  0  0  0
   -0.3084    2.1988   -0.0321 C   0  0  0  0  0  0  0  0  0  0  0  0
   -1.6611    1.8408    0.1389 C   0  0  0  0  0  0  0  0  0  0  0  0
   -2.6031    2.8976    0.0830 O   0  0  0  0  0  0  0  0  0  0  0  0
   -3.9596    2.6902    0.2137 C   0  0  0  0  0  0  0  0  0  0  0  0
   -4.7740    3.6031    0.1630 O   0  0  0  0  0  0  0  0  0  0  0  0
   -4.3870    1.3054    0.4184 C   0  0  0  0  0  0  0  0  0  0  0  0
   -3.5392    0.2657    0.4895 C   0  0  0  0  0  0  0  0  0  0  0  0
   -4.2067   -1.0346    0.6956 C   0  0  0  0  0  0  0  0  0  0  0  0
   -4.4332   -1.8919   -0.3885 C   0  0  0  0  0  0  0  0  0  0  0  0
   -5.0538   -3.1260   -0.1889 C   0  0  0  0  0  0  0  0  0  0  0  0
   -5.4544   -3.5078    1.0909 C   0  0  0  0  0  0  0  0  0  0  0  0
   -5.2373   -2.6574    2.1741 C   0  0  0  0  0  0  0  0  0  0  0  0
   -4.6165   -1.4229    1.9791 C   0  0  0  0  0  0  0  0  0  0  0  0
   -2.0850    0.5178    0.3471 C   0  0  0  0  0  0  0  0  0  0  0  0
   -1.0821   -0.4674    0.3829 C   0  0  0  0  0  0  0  0  0  0  0  0
   -1.3672   -1.8007    0.5221 O   0  0  0  0  0  0  0  0  0  0  0  0
    2.7840   -4.1605   -0.0926 H   0  0  0  0  0  0  0  0  0  0  0  0
    4.5171   -3.8372   -0.2202 H   0  0  0  0  0  0  0  0  0  0  0  0
    3.5671   -3.0201    1.0176 H   0  0  0  0  0  0  0  0  0  0  0  0
    3.4053   -2.6924   -2.0173 H   0  0  0  0  0  0  0  0  0  0  0  0
    5.3077   -1.5225   -1.1106 H   0  0  0  0  0  0  0  0  0  0  0  0
    4.0990   -0.3445   -1.6484 H   0  0  0  0  0  0  0  0  0  0  0  0
    5.0439    0.0978    0.4053 H   0  0  0  0  0  0  0  0  0  0  0  0
    1.6981   -0.9896   -1.7656 H   0  0  0  0  0  0  0  0  0  0  0  0
    1.1512   -2.5767   -1.2495 H   0  0  0  0  0  0  0  0  0  0  0  0
    2.2960    2.7783    2.1358 H   0  0  0  0  0  0  0  0  0  0  0  0
    3.5056    3.9279    1.5291 H   0  0  0  0  0  0  0  0  0  0  0  0
    3.8338    2.1815    1.5395 H   0  0  0  0  0  0  0  0  0  0  0  0
    4.3607    2.2225   -0.9500 H   0  0  0  0  0  0  0  0  0  0  0  0
    3.1819    2.8301   -2.0989 H   0  0  0  0  0  0  0  0  0  0  0  0
    4.0393    3.9660   -1.0342 H   0  0  0  0  0  0  0  0  0  0  0  0
    1.7360    4.8867   -0.3930 H   0  0  0  0  0  0  0  0  0  0  0  0
   -0.6403    4.3548   -0.4161 H   0  0  0  0  0  0  0  0  0  0  0  0
   -5.4629    1.1856    0.5070 H   0  0  0  0  0  0  0  0  0  0  0  0
   -4.1183   -1.6104   -1.3911 H   0  0  0  0  0  0  0  0  0  0  0  0
   -5.2222   -3.7915   -1.0321 H   0  0  0  0  0  0  0  0  0  0  0  0
   -5.9372   -4.4702    1.2437 H   0  0  0  0  0  0  0  0  0  0  0  0
   -5.5529   -2.9569    3.1707 H   0  0  0  0  0  0  0  0  0  0  0  0
   -4.4539   -0.7701    2.8345 H   0  0  0  0  0  0  0  0  0  0  0  0
   -2.0258   -1.9132    1.2293 H   0  0  0  0  0  0  0  0  0  0  0  0
  1  2  1  0
  2  3  1  0
  3  4  1  0
  2  5  1  0
  5  6  1  0
  6  7  2  0
  6  8  1  0
  8  9  2  0
  9 10  1  0
 10 11  1  0
 11 12  1  0
 11 13  1  0
 11 14  1  0
 14 15  2  0
 15 16  1  0
 16 17  2  0
 17 18  1  0
 18 19  1  0
 19 20  2  0
 19 21  1  0
 21 22  2  0
 22 23  1  0
 23 24  2  0
 24 25  1  0
 25 26  2  0
 26 27  1  0
 27 28  2  0
 22 29  1  0
 29 30  2  0
 30 31  1  0
 30  8  1  0
 16  9  1  0
 29 17  1  0
 28 23  1  0
  1 32  1  0
  1 33  1  0
  1 34  1  0
  2 35  1  6
  3 36  1  0
  3 37  1  0
  4 38  1  0
  5 39  1  0
  5 40  1  0
 12 41  1  0
 12 42  1  0
 12 43  1  0
 13 44  1  0
 13 45  1  0
 13 46  1  0
 14 47  1  0
 15 48  1  0
 21 49  1  0
 24 50  1  0
 25 51  1  0
 26 52  1  0
 27 53  1  0
 28 54  1  0
 31 55  1  0
M  END
>  <Name>  (522) 
Hydroxymammeigin

>  <PubChem ID>  (522) 
15478944

>  <CDB ID>  (522) 
CDB0522

>  <Smiles>  (522) 
C[C@H](CO)CC(=O)C1=C2OC(C)(C)C=CC2=C2OC(=O)C=C(C3=CC=CC=C3)C2=C1O

>  <Chemical class>  (522) 
5,7-Dioxygenated Coumarins

>  <Natural source>  (522) 
Kielmeyera elata

>  <Molecular Formula>  (522) 
C25H24O6

>  <InChI-Key>  (522) 
HRZGNXKXQGTISZ-AWEZNQCLSA-N

>  <Total Molweight>  (522) 
420.46

>  <cLogP>  (522) 
3.7481

>  <cLogS>  (522) 
-5.415

>  <H-Acceptors>  (522) 
6

>  <H-Donors>  (522) 
2

>  <Rotatable Bonds>  (522) 
5

>  <Polar Surface Area>  (522) 
93.06

$$$$
CDB0523
     RDKit          3D

 52 56  0  0  0  0  0  0  0  0999 V2000
   -4.4194   -0.8239   -0.6587 C   0  0  0  0  0  0  0  0  0  0  0  0
   -3.4229   -1.3356    0.3877 C   0  0  0  0  0  0  0  0  0  0  0  0
   -2.9196   -2.6950   -0.0216 C   0  0  0  0  0  0  0  0  0  0  0  0
   -1.6311   -2.9616   -0.2469 C   0  0  0  0  0  0  0  0  0  0  0  0
   -0.6583   -1.8854   -0.0919 C   0  0  0  0  0  0  0  0  0  0  0  0
    0.7208   -2.1014   -0.2853 C   0  0  0  0  0  0  0  0  0  0  0  0
    1.6816   -1.0948   -0.1190 C   0  0  0  0  0  0  0  0  0  0  0  0
    1.2117    0.1795    0.2415 C   0  0  0  0  0  0  0  0  0  0  0  0
   -0.1686    0.4335    0.3945 C   0  0  0  0  0  0  0  0  0  0  0  0
   -1.0996   -0.6083    0.2612 C   0  0  0  0  0  0  0  0  0  0  0  0
   -2.4108   -0.3198    0.5181 O   0  0  0  0  0  0  0  0  0  0  0  0
   -0.5955    1.8160    0.7263 C   0  0  0  0  0  0  0  0  0  0  0  0
    0.0897    2.4504    1.5299 O   0  0  0  0  0  0  0  0  0  0  0  0
   -1.7510    2.4765    0.0702 C   0  0  0  0  0  0  0  0  0  0  0  0
   -2.4806    3.4225    0.7993 C   0  0  0  0  0  0  0  0  0  0  0  0
   -3.5629    4.0763    0.2090 C   0  0  0  0  0  0  0  0  0  0  0  0
   -3.9098    3.7968   -1.1127 C   0  0  0  0  0  0  0  0  0  0  0  0
   -3.1721    2.8697   -1.8493 C   0  0  0  0  0  0  0  0  0  0  0  0
   -2.0885    2.2124   -1.2630 C   0  0  0  0  0  0  0  0  0  0  0  0
    2.1184    1.1927    0.4401 O   0  0  0  0  0  0  0  0  0  0  0  0
    3.1077   -1.4412   -0.3225 C   0  0  0  0  0  0  0  0  0  0  0  0
    3.4229   -2.6998   -0.6700 C   0  0  0  0  0  0  0  0  0  0  0  0
    2.4320   -3.7597   -0.8607 C   0  0  0  0  0  0  0  0  0  0  0  0
    2.7684   -4.8914   -1.1864 O   0  0  0  0  0  0  0  0  0  0  0  0
    1.1131   -3.4116   -0.6536 O   0  0  0  0  0  0  0  0  0  0  0  0
    4.2755   -0.5465   -0.1845 C   0  0  0  0  0  0  0  0  0  0  0  0
    4.7579    0.1634   -1.2922 C   0  0  0  0  0  0  0  0  0  0  0  0
    5.8799    0.9847   -1.1665 C   0  0  0  0  0  0  0  0  0  0  0  0
    6.5273    1.0991    0.0633 C   0  0  0  0  0  0  0  0  0  0  0  0
    6.0541    0.3947    1.1698 C   0  0  0  0  0  0  0  0  0  0  0  0
    4.9324   -0.4275    1.0476 C   0  0  0  0  0  0  0  0  0  0  0  0
   -4.1127   -1.4359    1.7527 C   0  0  0  0  0  0  0  0  0  0  0  0
   -3.9329   -0.6993   -1.6337 H   0  0  0  0  0  0  0  0  0  0  0  0
   -5.2695   -1.5037   -0.7833 H   0  0  0  0  0  0  0  0  0  0  0  0
   -4.8066    0.1631   -0.3793 H   0  0  0  0  0  0  0  0  0  0  0  0
   -3.6514   -3.4916   -0.1324 H   0  0  0  0  0  0  0  0  0  0  0  0
   -1.3038   -3.9546   -0.5368 H   0  0  0  0  0  0  0  0  0  0  0  0
   -2.2083    3.6495    1.8279 H   0  0  0  0  0  0  0  0  0  0  0  0
   -4.1314    4.8071    0.7788 H   0  0  0  0  0  0  0  0  0  0  0  0
   -4.7515    4.3095   -1.5722 H   0  0  0  0  0  0  0  0  0  0  0  0
   -3.4383    2.6633   -2.8831 H   0  0  0  0  0  0  0  0  0  0  0  0
   -1.5166    1.5068   -1.8588 H   0  0  0  0  0  0  0  0  0  0  0  0
    1.6924    1.9021    0.9720 H   0  0  0  0  0  0  0  0  0  0  0  0
    4.4487   -3.0159   -0.8334 H   0  0  0  0  0  0  0  0  0  0  0  0
    4.2576    0.0876   -2.2542 H   0  0  0  0  0  0  0  0  0  0  0  0
    6.2457    1.5389   -2.0267 H   0  0  0  0  0  0  0  0  0  0  0  0
    7.3980    1.7422    0.1609 H   0  0  0  0  0  0  0  0  0  0  0  0
    6.5553    0.4892    2.1294 H   0  0  0  0  0  0  0  0  0  0  0  0
    4.5688   -0.9665    1.9189 H   0  0  0  0  0  0  0  0  0  0  0  0
   -4.4914   -0.4574    2.0713 H   0  0  0  0  0  0  0  0  0  0  0  0
   -3.4043   -1.7577    2.5257 H   0  0  0  0  0  0  0  0  0  0  0  0
   -4.9506   -2.1415    1.7390 H   0  0  0  0  0  0  0  0  0  0  0  0
  1  2  1  0
  2  3  1  0
  3  4  2  0
  4  5  1  0
  5  6  2  0
  6  7  1  0
  7  8  2  0
  8  9  1  0
  9 10  2  0
 10 11  1  0
  9 12  1  0
 12 13  2  0
 12 14  1  0
 14 15  2  0
 15 16  1  0
 16 17  2  0
 17 18  1  0
 18 19  2  0
  8 20  1  0
  7 21  1  0
 21 22  2  0
 22 23  1  0
 23 24  2  0
 23 25  1  0
 21 26  1  0
 26 27  2  0
 27 28  1  0
 28 29  2  0
 29 30  1  0
 30 31  2  0
  2 32  1  0
 11  2  1  0
 10  5  1  0
 25  6  1  0
 19 14  1  0
 31 26  1  0
  1 33  1  0
  1 34  1  0
  1 35  1  0
  3 36  1  0
  4 37  1  0
 15 38  1  0
 16 39  1  0
 17 40  1  0
 18 41  1  0
 19 42  1  0
 20 43  1  0
 22 44  1  0
 27 45  1  0
 28 46  1  0
 29 47  1  0
 30 48  1  0
 31 49  1  0
 32 50  1  0
 32 51  1  0
 32 52  1  0
M  END
>  <Name>  (523) 
Isocalanone

>  <PubChem ID>  (523) 
11004403

>  <CDB ID>  (523) 
CDB0523

>  <Smiles>  (523) 
CC1(C=CC2=C3C(=C(C(=C2O1)C(=O)C4=CC=CC=C4)O)C(=CC(=O)O3)C5=CC=CC=C5)C

>  <Chemical class>  (523) 
5,7-Dioxygenated Coumarins

>  <Natural source>  (523) 
Calophyllum teysmannii

>  <Molecular Formula>  (523) 
C27H20O5

>  <InChI-Key>  (523) 
FAZVFXHNTSBJBV-UHFFFAOYSA-N

>  <Total Molweight>  (523) 
424.451

>  <cLogP>  (523) 
4.8065

>  <cLogS>  (523) 
-6.638

>  <H-Acceptors>  (523) 
5

>  <H-Donors>  (523) 
1

>  <Rotatable Bonds>  (523) 
3

>  <Polar Surface Area>  (523) 
72.83

$$$$
CDB0524
     RDKit          3D

 55 58  0  0  0  0  0  0  0  0999 V2000
   -1.3678    4.5826   -0.1754 C   0  0  0  0  0  0  0  0  0  0  0  0
   -1.4544    3.6147   -1.3133 C   0  0  0  0  0  0  0  0  0  0  0  0
   -1.4726    2.2681   -1.2606 C   0  0  0  0  0  0  0  0  0  0  0  0
   -1.5352    1.4369   -2.5101 C   0  0  0  0  0  0  0  0  0  0  0  0
   -1.5075    1.5429    0.0531 C   0  0  0  0  0  0  0  0  0  0  0  0
   -2.0602    1.9821    1.0559 O   0  0  0  0  0  0  0  0  0  0  0  0
   -0.8499    0.2235    0.1185 C   0  0  0  0  0  0  0  0  0  0  0  0
   -1.6427   -0.9295    0.1252 C   0  0  0  0  0  0  0  0  0  0  0  0
   -1.0318   -2.1826    0.1747 C   0  0  0  0  0  0  0  0  0  0  0  0
    0.3753   -2.2503    0.1998 C   0  0  0  0  0  0  0  0  0  0  0  0
    1.1982   -1.1124    0.1869 C   0  0  0  0  0  0  0  0  0  0  0  0
    0.5539    0.1403    0.1885 C   0  0  0  0  0  0  0  0  0  0  0  0
    1.2874    1.3012    0.1845 O   0  0  0  0  0  0  0  0  0  0  0  0
    1.4268    1.8212    1.5108 C   0  0  0  0  0  0  0  0  0  0  0  0
    2.6687   -1.3106    0.1650 C   0  0  0  0  0  0  0  0  0  0  0  0
    3.1489   -2.5650    0.1983 C   0  0  0  0  0  0  0  0  0  0  0  0
    2.3050   -3.7590    0.2628 C   0  0  0  0  0  0  0  0  0  0  0  0
    2.7962   -4.8792    0.3216 O   0  0  0  0  0  0  0  0  0  0  0  0
    0.9430   -3.5472    0.2414 O   0  0  0  0  0  0  0  0  0  0  0  0
    3.7156   -0.2716    0.0527 C   0  0  0  0  0  0  0  0  0  0  0  0
    4.5158    0.0572    1.1568 C   0  0  0  0  0  0  0  0  0  0  0  0
    5.5145    1.0257    1.0402 C   0  0  0  0  0  0  0  0  0  0  0  0
    5.7238    1.6684   -0.1789 C   0  0  0  0  0  0  0  0  0  0  0  0
    4.9371    1.3437   -1.2833 C   0  0  0  0  0  0  0  0  0  0  0  0
    3.9383    0.3748   -1.1702 C   0  0  0  0  0  0  0  0  0  0  0  0
   -1.8667   -3.3803    0.1682 C   0  0  0  0  0  0  0  0  0  0  0  0
   -3.1912   -3.2291    0.2594 C   0  0  0  0  0  0  0  0  0  0  0  0
   -3.8566   -1.8776    0.3472 C   0  0  0  0  0  0  0  0  0  0  0  0
   -2.9974   -0.7695    0.0158 O   0  0  0  0  0  0  0  0  0  0  0  0
   -4.3893   -1.6443    1.7653 C   0  0  0  0  0  0  0  0  0  0  0  0
   -5.0149   -1.8181   -0.6558 C   0  0  0  0  0  0  0  0  0  0  0  0
   -2.3529    5.0108    0.0309 H   0  0  0  0  0  0  0  0  0  0  0  0
   -0.9680    4.1424    0.7405 H   0  0  0  0  0  0  0  0  0  0  0  0
   -0.6934    5.4011   -0.4491 H   0  0  0  0  0  0  0  0  0  0  0  0
   -1.4833    4.0916   -2.2918 H   0  0  0  0  0  0  0  0  0  0  0  0
   -2.3799    0.7415   -2.4702 H   0  0  0  0  0  0  0  0  0  0  0  0
   -0.6119    0.8650   -2.6462 H   0  0  0  0  0  0  0  0  0  0  0  0
   -1.6698    2.0546   -3.4049 H   0  0  0  0  0  0  0  0  0  0  0  0
    2.2127    2.5821    1.4888 H   0  0  0  0  0  0  0  0  0  0  0  0
    0.5030    2.3026    1.8424 H   0  0  0  0  0  0  0  0  0  0  0  0
    1.7219    1.0465    2.2272 H   0  0  0  0  0  0  0  0  0  0  0  0
    4.2129   -2.7806    0.1667 H   0  0  0  0  0  0  0  0  0  0  0  0
    4.3630   -0.4341    2.1150 H   0  0  0  0  0  0  0  0  0  0  0  0
    6.1294    1.2791    1.9001 H   0  0  0  0  0  0  0  0  0  0  0  0
    6.5004    2.4238   -0.2691 H   0  0  0  0  0  0  0  0  0  0  0  0
    5.0992    1.8470   -2.2330 H   0  0  0  0  0  0  0  0  0  0  0  0
    3.3290    0.1357   -2.0385 H   0  0  0  0  0  0  0  0  0  0  0  0
   -1.4114   -4.3634    0.1173 H   0  0  0  0  0  0  0  0  0  0  0  0
   -3.8260   -4.1108    0.2933 H   0  0  0  0  0  0  0  0  0  0  0  0
   -4.8754   -0.6647    1.8425 H   0  0  0  0  0  0  0  0  0  0  0  0
   -5.1112   -2.4128    2.0625 H   0  0  0  0  0  0  0  0  0  0  0  0
   -3.5724   -1.6402    2.4969 H   0  0  0  0  0  0  0  0  0  0  0  0
   -4.6495   -1.9423   -1.6825 H   0  0  0  0  0  0  0  0  0  0  0  0
   -5.7667   -2.5911   -0.4621 H   0  0  0  0  0  0  0  0  0  0  0  0
   -5.5103   -0.8405   -0.6221 H   0  0  0  0  0  0  0  0  0  0  0  0
  1  2  1  0
  2  3  2  3
  3  4  1  0
  3  5  1  0
  5  6  2  0
  5  7  1  0
  7  8  2  0
  8  9  1  0
  9 10  2  0
 10 11  1  0
 11 12  2  0
 12 13  1  0
 13 14  1  0
 11 15  1  0
 15 16  2  0
 16 17  1  0
 17 18  2  0
 17 19  1  0
 15 20  1  0
 20 21  2  0
 21 22  1  0
 22 23  2  0
 23 24  1  0
 24 25  2  0
  9 26  1  0
 26 27  2  0
 27 28  1  0
 28 29  1  0
 28 30  1  0
 28 31  1  0
 12  7  1  0
 29  8  1  0
 19 10  1  0
 25 20  1  0
  1 32  1  0
  1 33  1  0
  1 34  1  0
  2 35  1  0
  4 36  1  0
  4 37  1  0
  4 38  1  0
 14 39  1  0
 14 40  1  0
 14 41  1  0
 16 42  1  0
 21 43  1  0
 22 44  1  0
 23 45  1  0
 24 46  1  0
 25 47  1  0
 26 48  1  0
 27 49  1  0
 30 50  1  0
 30 51  1  0
 30 52  1  0
 31 53  1  0
 31 54  1  0
 31 55  1  0
M  END
>  <Name>  (524) 
Apetalolide

>  <PubChem ID>  (524) 
11047986

>  <CDB ID>  (524) 
CDB0524

>  <Smiles>  (524) 
CC=C(C)C(=O)C1=C2C(=C3C(=C1OC)C(=CC(=O)O3)C4=CC=CC=C4)C=CC(O2)(C)C

>  <Chemical class>  (524) 
5,7-Dioxygenated Coumarins

>  <Natural source>  (524) 
Calophyllum apetalum

>  <Molecular Formula>  (524) 
C26H24O5

>  <InChI-Key>  (524) 
IGOQXOXLHZFPHW-UHFFFAOYSA-N

>  <Total Molweight>  (524) 
416.472

>  <cLogP>  (524) 
5.0864

>  <cLogS>  (524) 
-5.972

>  <H-Acceptors>  (524) 
5

>  <H-Donors>  (524) 
0

>  <Rotatable Bonds>  (524) 
4

>  <Polar Surface Area>  (524) 
61.83

$$$$
CDB0525
     RDKit          3D

 52 56  0  0  0  0  0  0  0  0999 V2000
   -3.8207    2.2657   -1.2979 C   0  0  0  0  0  0  0  0  0  0  0  0
   -2.7294    2.4007   -0.2295 C   0  0  0  0  0  0  0  0  0  0  0  0
   -1.5944    3.2268   -0.7777 C   0  0  0  0  0  0  0  0  0  0  0  0
   -0.3237    2.8158   -0.7715 C   0  0  0  0  0  0  0  0  0  0  0  0
   -0.0111    1.5069   -0.2019 C   0  0  0  0  0  0  0  0  0  0  0  0
    1.3248    1.0511   -0.0808 C   0  0  0  0  0  0  0  0  0  0  0  0
    1.6323   -0.2279    0.4341 C   0  0  0  0  0  0  0  0  0  0  0  0
    0.5484   -1.0120    0.8525 C   0  0  0  0  0  0  0  0  0  0  0  0
   -0.7772   -0.5652    0.7563 C   0  0  0  0  0  0  0  0  0  0  0  0
   -1.0626    0.6954    0.2294 C   0  0  0  0  0  0  0  0  0  0  0  0
   -2.3782    1.0560    0.1463 O   0  0  0  0  0  0  0  0  0  0  0  0
   -1.8694   -1.4174    1.2599 C   0  0  0  0  0  0  0  0  0  0  0  0
   -1.9744   -1.5546    2.4759 O   0  0  0  0  0  0  0  0  0  0  0  0
   -2.8127   -2.0924    0.3231 C   0  0  0  0  0  0  0  0  0  0  0  0
   -3.9234   -2.7526    0.8652 C   0  0  0  0  0  0  0  0  0  0  0  0
   -4.8344   -3.4039    0.0316 C   0  0  0  0  0  0  0  0  0  0  0  0
   -4.6396   -3.4024   -1.3483 C   0  0  0  0  0  0  0  0  0  0  0  0
   -3.5340   -2.7529   -1.8959 C   0  0  0  0  0  0  0  0  0  0  0  0
   -2.6192   -2.1006   -1.0646 C   0  0  0  0  0  0  0  0  0  0  0  0
    0.7425   -2.3123    1.3715 O   0  0  0  0  0  0  0  0  0  0  0  0
    1.9935   -2.8722    1.5095 C   0  0  0  0  0  0  0  0  0  0  0  0
    2.1752   -3.9953    1.9618 O   0  0  0  0  0  0  0  0  0  0  0  0
    3.1198   -2.0533    1.0572 C   0  0  0  0  0  0  0  0  0  0  0  0
    2.9906   -0.8163    0.5486 C   0  0  0  0  0  0  0  0  0  0  0  0
    4.2716   -0.2185    0.1239 C   0  0  0  0  0  0  0  0  0  0  0  0
    5.1434    0.3368    1.0715 C   0  0  0  0  0  0  0  0  0  0  0  0
    6.3465    0.9149    0.6643 C   0  0  0  0  0  0  0  0  0  0  0  0
    6.6861    0.9398   -0.6876 C   0  0  0  0  0  0  0  0  0  0  0  0
    5.8262    0.3855   -1.6349 C   0  0  0  0  0  0  0  0  0  0  0  0
    4.6225   -0.1945   -1.2320 C   0  0  0  0  0  0  0  0  0  0  0  0
    2.2922    1.9327   -0.5008 O   0  0  0  0  0  0  0  0  0  0  0  0
   -3.3070    3.0783    1.0178 C   0  0  0  0  0  0  0  0  0  0  0  0
   -3.4379    1.7434   -2.1832 H   0  0  0  0  0  0  0  0  0  0  0  0
   -4.2094    3.2400   -1.6142 H   0  0  0  0  0  0  0  0  0  0  0  0
   -4.6591    1.6649   -0.9259 H   0  0  0  0  0  0  0  0  0  0  0  0
   -1.8313    4.2077   -1.1817 H   0  0  0  0  0  0  0  0  0  0  0  0
    0.4751    3.4342   -1.1663 H   0  0  0  0  0  0  0  0  0  0  0  0
   -4.0824   -2.7613    1.9420 H   0  0  0  0  0  0  0  0  0  0  0  0
   -5.6932   -3.9130    0.4615 H   0  0  0  0  0  0  0  0  0  0  0  0
   -5.3489   -3.9106   -1.9970 H   0  0  0  0  0  0  0  0  0  0  0  0
   -3.3828   -2.7561   -2.9726 H   0  0  0  0  0  0  0  0  0  0  0  0
   -1.7668   -1.6091   -1.5229 H   0  0  0  0  0  0  0  0  0  0  0  0
    4.0833   -2.5455    1.1549 H   0  0  0  0  0  0  0  0  0  0  0  0
    4.8927    0.3240    2.1306 H   0  0  0  0  0  0  0  0  0  0  0  0
    7.0216    1.3435    1.4014 H   0  0  0  0  0  0  0  0  0  0  0  0
    7.6247    1.3892   -1.0040 H   0  0  0  0  0  0  0  0  0  0  0  0
    6.0937    0.4049   -2.6887 H   0  0  0  0  0  0  0  0  0  0  0  0
    3.9591   -0.6191   -1.9829 H   0  0  0  0  0  0  0  0  0  0  0  0
    3.1186    1.7738   -0.0177 H   0  0  0  0  0  0  0  0  0  0  0  0
   -4.1386    2.4942    1.4293 H   0  0  0  0  0  0  0  0  0  0  0  0
   -2.5541    3.1427    1.8126 H   0  0  0  0  0  0  0  0  0  0  0  0
   -3.6685    4.0902    0.8045 H   0  0  0  0  0  0  0  0  0  0  0  0
  1  2  1  0
  2  3  1  0
  3  4  2  0
  4  5  1  0
  5  6  2  0
  6  7  1  0
  7  8  2  0
  8  9  1  0
  9 10  2  0
 10 11  1  0
  9 12  1  0
 12 13  2  0
 12 14  1  0
 14 15  2  0
 15 16  1  0
 16 17  2  0
 17 18  1  0
 18 19  2  0
  8 20  1  0
 20 21  1  0
 21 22  2  0
 21 23  1  0
 23 24  2  0
 24 25  1  0
 25 26  2  0
 26 27  1  0
 27 28  2  0
 28 29  1  0
 29 30  2  0
  6 31  1  0
  2 32  1  0
 11  2  1  0
 10  5  1  0
 24  7  1  0
 19 14  1  0
 30 25  1  0
  1 33  1  0
  1 34  1  0
  1 35  1  0
  3 36  1  0
  4 37  1  0
 15 38  1  0
 16 39  1  0
 17 40  1  0
 18 41  1  0
 19 42  1  0
 23 43  1  0
 26 44  1  0
 27 45  1  0
 28 46  1  0
 29 47  1  0
 30 48  1  0
 31 49  1  0
 32 50  1  0
 32 51  1  0
 32 52  1  0
M  END
>  <Name>  (525) 
Teysmanone A

>  <PubChem ID>  (525) 
15381981

>  <CDB ID>  (525) 
CDB0525

>  <Smiles>  (525) 
CC1(C=CC2=C(C3=C(C(=C2O1)C(=O)C4=CC=CC=C4)OC(=O)C=C3C5=CC=CC=C5)O)C

>  <Chemical class>  (525) 
5,7-Dioxygenated Coumarins

>  <Natural source>  (525) 
Calophyllum teysmannii var. inophylloide

>  <Molecular Formula>  (525) 
C27H20O5

>  <InChI-Key>  (525) 
NYPHJSCHWLYHEU-UHFFFAOYSA-N

>  <Total Molweight>  (525) 
424.451

>  <cLogP>  (525) 
4.8065

>  <cLogS>  (525) 
-6.638

>  <H-Acceptors>  (525) 
5

>  <H-Donors>  (525) 
1

>  <Rotatable Bonds>  (525) 
3

>  <Polar Surface Area>  (525) 
72.83

$$$$
CDB0526
     RDKit          3D

 54 57  0  0  0  0  0  0  0  0999 V2000
    5.4611    2.5308    0.8918 C   0  0  0  0  0  0  0  0  0  0  0  0
    4.8047    1.9246   -0.3397 C   0  0  0  0  0  0  0  0  0  0  0  0
    4.2325    0.5227   -0.0841 C   0  0  2  0  0  0  0  0  0  0  0  0
    5.3320   -0.5293    0.0795 C   0  0  0  0  0  0  0  0  0  0  0  0
    3.3480    0.1204   -1.2603 C   0  0  0  0  0  0  0  0  0  0  0  0
    3.8121   -0.1038   -2.3813 O   0  0  0  0  0  0  0  0  0  0  0  0
    1.8921   -0.1227   -1.0631 C   0  0  0  0  0  0  0  0  0  0  0  0
    1.0866    0.6748   -0.2378 C   0  0  0  0  0  0  0  0  0  0  0  0
    1.6790    1.8125    0.3520 O   0  0  0  0  0  0  0  0  0  0  0  0
    0.9914    2.6750    1.1820 C   0  0  0  0  0  0  0  0  0  0  0  0
    1.5234    3.6487    1.6986 O   0  0  0  0  0  0  0  0  0  0  0  0
   -0.4148    2.3559    1.4230 C   0  0  0  0  0  0  0  0  0  0  0  0
   -1.0392    1.3012    0.8739 C   0  0  0  0  0  0  0  0  0  0  0  0
   -2.4570    1.1740    1.2718 C   0  0  0  0  0  0  0  0  0  0  0  0
   -3.4598    1.8170    0.5339 C   0  0  0  0  0  0  0  0  0  0  0  0
   -4.7965    1.7075    0.9209 C   0  0  0  0  0  0  0  0  0  0  0  0
   -5.1384    0.9596    2.0471 C   0  0  0  0  0  0  0  0  0  0  0  0
   -4.1458    0.3196    2.7883 C   0  0  0  0  0  0  0  0  0  0  0  0
   -2.8080    0.4265    2.4041 C   0  0  0  0  0  0  0  0  0  0  0  0
   -0.2750    0.4031   -0.0295 C   0  0  0  0  0  0  0  0  0  0  0  0
   -0.8325   -0.7117   -0.6960 C   0  0  0  0  0  0  0  0  0  0  0  0
   -2.1662   -0.9577   -0.5067 O   0  0  0  0  0  0  0  0  0  0  0  0
   -2.7494   -2.1966   -0.9460 C   0  0  0  0  0  0  0  0  0  0  0  0
   -2.9576   -3.0710    0.2955 C   0  0  0  0  0  0  0  0  0  0  0  0
   -4.1094   -1.8268   -1.5496 C   0  0  0  0  0  0  0  0  0  0  0  0
   -1.9368   -2.9447   -1.9684 C   0  0  0  0  0  0  0  0  0  0  0  0
   -0.6766   -2.6204   -2.2660 C   0  0  0  0  0  0  0  0  0  0  0  0
   -0.0550   -1.5028   -1.5604 C   0  0  0  0  0  0  0  0  0  0  0  0
    1.3004   -1.1924   -1.7498 C   0  0  0  0  0  0  0  0  0  0  0  0
    2.0267   -1.9699   -2.6241 O   0  0  0  0  0  0  0  0  0  0  0  0
    5.7975    3.5497    0.6748 H   0  0  0  0  0  0  0  0  0  0  0  0
    4.7563    2.5788    1.7280 H   0  0  0  0  0  0  0  0  0  0  0  0
    6.3343    1.9526    1.2072 H   0  0  0  0  0  0  0  0  0  0  0  0
    5.5339    1.8927   -1.1590 H   0  0  0  0  0  0  0  0  0  0  0  0
    4.0065    2.5988   -0.6729 H   0  0  0  0  0  0  0  0  0  0  0  0
    3.6473    0.5138    0.8407 H   0  0  0  0  0  0  0  0  0  0  0  0
    4.8987   -1.5325    0.1609 H   0  0  0  0  0  0  0  0  0  0  0  0
    5.9228   -0.3481    0.9825 H   0  0  0  0  0  0  0  0  0  0  0  0
    6.0139   -0.5349   -0.7781 H   0  0  0  0  0  0  0  0  0  0  0  0
   -0.9202    3.0470    2.0909 H   0  0  0  0  0  0  0  0  0  0  0  0
   -3.2065    2.3964   -0.3507 H   0  0  0  0  0  0  0  0  0  0  0  0
   -5.5712    2.2035    0.3418 H   0  0  0  0  0  0  0  0  0  0  0  0
   -6.1800    0.8745    2.3464 H   0  0  0  0  0  0  0  0  0  0  0  0
   -4.4138   -0.2648    3.6647 H   0  0  0  0  0  0  0  0  0  0  0  0
   -2.0439   -0.0820    2.9868 H   0  0  0  0  0  0  0  0  0  0  0  0
   -2.0005   -3.3018    0.7783 H   0  0  0  0  0  0  0  0  0  0  0  0
   -3.5613   -2.5469    1.0453 H   0  0  0  0  0  0  0  0  0  0  0  0
   -3.4560   -4.0157    0.0519 H   0  0  0  0  0  0  0  0  0  0  0  0
   -4.7225   -1.2787   -0.8245 H   0  0  0  0  0  0  0  0  0  0  0  0
   -3.9860   -1.1615   -2.4128 H   0  0  0  0  0  0  0  0  0  0  0  0
   -4.6698   -2.7108   -1.8734 H   0  0  0  0  0  0  0  0  0  0  0  0
   -2.3983   -3.7930   -2.4667 H   0  0  0  0  0  0  0  0  0  0  0  0
   -0.1023   -3.1777   -2.9986 H   0  0  0  0  0  0  0  0  0  0  0  0
    2.8488   -1.4838   -2.8632 H   0  0  0  0  0  0  0  0  0  0  0  0
  1  2  1  0
  2  3  1  0
  3  4  1  0
  3  5  1  0
  5  6  2  0
  5  7  1  0
  7  8  1  0
  8  9  1  0
  9 10  1  0
 10 11  2  0
 10 12  1  0
 12 13  2  0
 13 14  1  0
 14 15  2  0
 15 16  1  0
 16 17  2  0
 17 18  1  0
 18 19  2  0
 13 20  1  0
 20 21  1  0
 21 22  1  0
 22 23  1  0
 23 24  1  0
 23 25  1  0
 23 26  1  0
 26 27  2  0
 27 28  1  0
 28 29  1  0
 29 30  1  0
 29  7  2  0
 20  8  2  0
 28 21  2  0
 19 14  1  0
  1 31  1  0
  1 32  1  0
  1 33  1  0
  2 34  1  0
  2 35  1  0
  3 36  1  1
  4 37  1  0
  4 38  1  0
  4 39  1  0
 12 40  1  0
 15 41  1  0
 16 42  1  0
 17 43  1  0
 18 44  1  0
 19 45  1  0
 24 46  1  0
 24 47  1  0
 24 48  1  0
 25 49  1  0
 25 50  1  0
 25 51  1  0
 26 52  1  0
 27 53  1  0
 30 54  1  0
M  END
>  <Name>  (526) 
Ponnalide

>  <PubChem ID>  (526) 
12314461

>  <CDB ID>  (526) 
CDB0526

>  <Smiles>  (526) 
CC[C@H](C)C(=O)C1=C2OC(=O)C=C(C3=CC=CC=C3)C2=C2OC(C)(C)C=CC2=C1O

>  <Chemical class>  (526) 
5,7-Dioxygenated Coumarins

>  <Natural source>  (526) 
Calophyllum teysmannii var. inophylloide

>  <Molecular Formula>  (526) 
C25H24O5

>  <InChI-Key>  (526) 
MIXHWJJKSJFGCZ-AWEZNQCLSA-N

>  <Total Molweight>  (526) 
404.461

>  <cLogP>  (526) 
4.6748

>  <cLogS>  (526) 
-5.922

>  <H-Acceptors>  (526) 
5

>  <H-Donors>  (526) 
1

>  <Rotatable Bonds>  (526) 
4

>  <Polar Surface Area>  (526) 
72.83

$$$$
CDB0527
     RDKit          3D

 55 58  0  0  0  0  0  0  0  0999 V2000
    6.8717    0.8134    0.5629 C   0  0  0  0  0  0  0  0  0  0  0  0
    5.6336    0.8198   -0.2748 C   0  0  0  0  0  0  0  0  0  0  0  0
    4.3703    0.5376    0.1035 C   0  0  0  0  0  0  0  0  0  0  0  0
    3.9366    0.1810    1.4942 C   0  0  0  0  0  0  0  0  0  0  0  0
    3.3284    0.6180   -0.9819 C   0  0  0  0  0  0  0  0  0  0  0  0
    3.5652    0.9935   -2.1265 O   0  0  0  0  0  0  0  0  0  0  0  0
    1.9487    0.2202   -0.6636 C   0  0  0  0  0  0  0  0  0  0  0  0
    1.5728   -1.1231   -0.7210 C   0  0  0  0  0  0  0  0  0  0  0  0
    0.2606   -1.4939   -0.3878 C   0  0  0  0  0  0  0  0  0  0  0  0
   -0.6832   -0.4950   -0.0719 C   0  0  0  0  0  0  0  0  0  0  0  0
   -0.3250    0.8730   -0.0467 C   0  0  0  0  0  0  0  0  0  0  0  0
    1.0040    1.1994   -0.3377 C   0  0  0  0  0  0  0  0  0  0  0  0
    1.4555    2.5358   -0.2825 O   0  0  0  0  0  0  0  0  0  0  0  0
    0.6170    3.5805    0.0492 C   0  0  0  0  0  0  0  0  0  0  0  0
    1.0062    4.7385    0.1343 O   0  0  0  0  0  0  0  0  0  0  0  0
   -0.7834    3.2358    0.3042 C   0  0  0  0  0  0  0  0  0  0  0  0
   -1.2596    1.9804    0.2690 C   0  0  0  0  0  0  0  0  0  0  0  0
   -2.7083    1.8769    0.5398 C   0  0  0  0  0  0  0  0  0  0  0  0
   -3.1762    1.7404    1.8535 C   0  0  0  0  0  0  0  0  0  0  0  0
   -4.5466    1.6570    2.1060 C   0  0  0  0  0  0  0  0  0  0  0  0
   -5.4559    1.7134    1.0502 C   0  0  0  0  0  0  0  0  0  0  0  0
   -4.9979    1.8530   -0.2594 C   0  0  0  0  0  0  0  0  0  0  0  0
   -3.6282    1.9359   -0.5157 C   0  0  0  0  0  0  0  0  0  0  0  0
   -1.9687   -0.8169    0.2779 O   0  0  0  0  0  0  0  0  0  0  0  0
   -2.4885   -2.1243   -0.0204 C   0  0  0  0  0  0  0  0  0  0  0  0
   -1.4324   -3.1880   -0.1677 C   0  0  0  0  0  0  0  0  0  0  0  0
   -0.1391   -2.8986   -0.3297 C   0  0  0  0  0  0  0  0  0  0  0  0
   -3.4089   -2.4810    1.1531 C   0  0  0  0  0  0  0  0  0  0  0  0
   -3.3136   -2.0197   -1.3077 C   0  0  0  0  0  0  0  0  0  0  0  0
    2.5092   -2.0854   -1.0141 O   0  0  0  0  0  0  0  0  0  0  0  0
    2.5532   -2.3268   -2.4245 C   0  0  0  0  0  0  0  0  0  0  0  0
    7.6283    0.1789    0.0900 H   0  0  0  0  0  0  0  0  0  0  0  0
    7.2759    1.8280    0.6331 H   0  0  0  0  0  0  0  0  0  0  0  0
    6.7174    0.4362    1.5752 H   0  0  0  0  0  0  0  0  0  0  0  0
    5.8216    1.0858   -1.3165 H   0  0  0  0  0  0  0  0  0  0  0  0
    4.7337    0.2895    2.2331 H   0  0  0  0  0  0  0  0  0  0  0  0
    3.1230    0.8340    1.8267 H   0  0  0  0  0  0  0  0  0  0  0  0
    3.5945   -0.8578    1.5370 H   0  0  0  0  0  0  0  0  0  0  0  0
   -1.4162    4.0899    0.5263 H   0  0  0  0  0  0  0  0  0  0  0  0
   -2.4765    1.6887    2.6840 H   0  0  0  0  0  0  0  0  0  0  0  0
   -4.9044    1.5464    3.1263 H   0  0  0  0  0  0  0  0  0  0  0  0
   -6.5227    1.6484    1.2485 H   0  0  0  0  0  0  0  0  0  0  0  0
   -5.7073    1.8965   -1.0817 H   0  0  0  0  0  0  0  0  0  0  0  0
   -3.2827    2.0406   -1.5414 H   0  0  0  0  0  0  0  0  0  0  0  0
   -1.7489   -4.2275   -0.1555 H   0  0  0  0  0  0  0  0  0  0  0  0
    0.6085   -3.6772   -0.4338 H   0  0  0  0  0  0  0  0  0  0  0  0
   -2.8463   -2.5186    2.0939 H   0  0  0  0  0  0  0  0  0  0  0  0
   -3.9035   -3.4477    1.0086 H   0  0  0  0  0  0  0  0  0  0  0  0
   -4.1829   -1.7163    1.2884 H   0  0  0  0  0  0  0  0  0  0  0  0
   -4.0963   -1.2589   -1.2088 H   0  0  0  0  0  0  0  0  0  0  0  0
   -2.6879   -1.7088   -2.1528 H   0  0  0  0  0  0  0  0  0  0  0  0
   -3.7901   -2.9717   -1.5661 H   0  0  0  0  0  0  0  0  0  0  0  0
    2.8336   -1.4277   -2.9814 H   0  0  0  0  0  0  0  0  0  0  0  0
    1.5954   -2.7119   -2.7903 H   0  0  0  0  0  0  0  0  0  0  0  0
    3.3163   -3.0893   -2.6070 H   0  0  0  0  0  0  0  0  0  0  0  0
  1  2  1  0
  2  3  2  3
  3  4  1  0
  3  5  1  0
  5  6  2  0
  5  7  1  0
  7  8  2  0
  8  9  1  0
  9 10  2  0
 10 11  1  0
 11 12  2  0
 12 13  1  0
 13 14  1  0
 14 15  2  0
 14 16  1  0
 16 17  2  0
 17 18  1  0
 18 19  2  0
 19 20  1  0
 20 21  2  0
 21 22  1  0
 22 23  2  0
 10 24  1  0
 24 25  1  0
 25 26  1  0
 26 27  2  0
 25 28  1  0
 25 29  1  0
  8 30  1  0
 30 31  1  0
 12  7  1  0
 27  9  1  0
 17 11  1  0
 23 18  1  0
  1 32  1  0
  1 33  1  0
  1 34  1  0
  2 35  1  0
  4 36  1  0
  4 37  1  0
  4 38  1  0
 16 39  1  0
 19 40  1  0
 20 41  1  0
 21 42  1  0
 22 43  1  0
 23 44  1  0
 26 45  1  0
 27 46  1  0
 28 47  1  0
 28 48  1  0
 28 49  1  0
 29 50  1  0
 29 51  1  0
 29 52  1  0
 31 53  1  0
 31 54  1  0
 31 55  1  0
M  END
>  <Name>  (527) 
Calophyllolide

>  <PubChem ID>  (527) 
5281392

>  <CDB ID>  (527) 
CDB0527

>  <Smiles>  (527) 
CC=C(C)C(=O)C1=C(C2=C(C3=C1OC(=O)C=C3C4=CC=CC=C4)OC(C=C2)(C)C)OC

>  <Chemical class>  (527) 
5,7-Dioxygenated Coumarins

>  <Natural source>  (527) 
Calophyllum inophyllum

>  <Molecular Formula>  (527) 
C26H24O5

>  <InChI-Key>  (527) 
PMBLOLOJQZPEND-UHFFFAOYSA-N

>  <Total Molweight>  (527) 
416.472

>  <cLogP>  (527) 
5.0864

>  <cLogS>  (527) 
-5.972

>  <H-Acceptors>  (527) 
5

>  <H-Donors>  (527) 
0

>  <Rotatable Bonds>  (527) 
4

>  <Polar Surface Area>  (527) 
61.83

$$$$
CDB0528
     RDKit          3D

 52 56  0  0  0  0  0  0  0  0999 V2000
   -3.8726   -1.8971   -1.2998 C   0  0  0  0  0  0  0  0  0  0  0  0
   -2.9577   -1.9299   -0.0700 C   0  0  0  0  0  0  0  0  0  0  0  0
   -2.2560   -3.2601   -0.0057 C   0  0  0  0  0  0  0  0  0  0  0  0
   -0.9361   -3.3725    0.1586 C   0  0  0  0  0  0  0  0  0  0  0  0
   -0.1407   -2.1553    0.2936 C   0  0  0  0  0  0  0  0  0  0  0  0
    1.2293   -2.2171    0.5865 C   0  0  0  0  0  0  0  0  0  0  0  0
    1.9920   -1.0456    0.6664 C   0  0  0  0  0  0  0  0  0  0  0  0
    1.3517    0.1939    0.5238 C   0  0  0  0  0  0  0  0  0  0  0  0
   -0.0173    0.2978    0.2382 C   0  0  0  0  0  0  0  0  0  0  0  0
   -0.7559   -0.9019    0.1179 C   0  0  0  0  0  0  0  0  0  0  0  0
   -2.0831   -0.7960   -0.2026 O   0  0  0  0  0  0  0  0  0  0  0  0
   -0.5996    1.6555    0.0897 C   0  0  0  0  0  0  0  0  0  0  0  0
    0.1952    2.7242    0.2620 C   0  0  0  0  0  0  0  0  0  0  0  0
    1.6165    2.6303    0.5957 C   0  0  0  0  0  0  0  0  0  0  0  0
    2.2985    3.6348    0.7529 O   0  0  0  0  0  0  0  0  0  0  0  0
    2.1321    1.3557    0.7174 O   0  0  0  0  0  0  0  0  0  0  0  0
   -2.0000    1.9976   -0.2360 C   0  0  0  0  0  0  0  0  0  0  0  0
   -2.9254    2.2394    0.7884 C   0  0  0  0  0  0  0  0  0  0  0  0
   -4.2441    2.5770    0.4788 C   0  0  0  0  0  0  0  0  0  0  0  0
   -4.6445    2.6778   -0.8530 C   0  0  0  0  0  0  0  0  0  0  0  0
   -3.7288    2.4415   -1.8777 C   0  0  0  0  0  0  0  0  0  0  0  0
   -2.4092    2.1040   -1.5719 C   0  0  0  0  0  0  0  0  0  0  0  0
    3.4463   -1.1656    0.9257 C   0  0  0  0  0  0  0  0  0  0  0  0
    3.8166   -2.0344    1.7160 O   0  0  0  0  0  0  0  0  0  0  0  0
    4.4552   -0.3442    0.2151 C   0  0  0  0  0  0  0  0  0  0  0  0
    5.6264    0.0083    0.8948 C   0  0  0  0  0  0  0  0  0  0  0  0
    6.6026    0.7705    0.2523 C   0  0  0  0  0  0  0  0  0  0  0  0
    6.4167    1.1691   -1.0713 C   0  0  0  0  0  0  0  0  0  0  0  0
    5.2600    0.8001   -1.7587 C   0  0  0  0  0  0  0  0  0  0  0  0
    4.2798    0.0375   -1.1208 C   0  0  0  0  0  0  0  0  0  0  0  0
    1.8006   -3.4528    0.7894 O   0  0  0  0  0  0  0  0  0  0  0  0
   -3.7921   -1.7195    1.1984 C   0  0  0  0  0  0  0  0  0  0  0  0
   -3.2898   -1.9994   -2.2233 H   0  0  0  0  0  0  0  0  0  0  0  0
   -4.6228   -2.6952   -1.2758 H   0  0  0  0  0  0  0  0  0  0  0  0
   -4.3960   -0.9364   -1.3717 H   0  0  0  0  0  0  0  0  0  0  0  0
   -2.8604   -4.1603   -0.0776 H   0  0  0  0  0  0  0  0  0  0  0  0
   -0.4481   -4.3398    0.2145 H   0  0  0  0  0  0  0  0  0  0  0  0
   -0.1720    3.7418    0.1671 H   0  0  0  0  0  0  0  0  0  0  0  0
   -2.6267    2.1575    1.8307 H   0  0  0  0  0  0  0  0  0  0  0  0
   -4.9592    2.7593    1.2768 H   0  0  0  0  0  0  0  0  0  0  0  0
   -5.6721    2.9393   -1.0928 H   0  0  0  0  0  0  0  0  0  0  0  0
   -4.0428    2.5173   -2.9155 H   0  0  0  0  0  0  0  0  0  0  0  0
   -1.7062    1.9150   -2.3794 H   0  0  0  0  0  0  0  0  0  0  0  0
    5.7784   -0.3044    1.9256 H   0  0  0  0  0  0  0  0  0  0  0  0
    7.5078    1.0530    0.7840 H   0  0  0  0  0  0  0  0  0  0  0  0
    7.1780    1.7646   -1.5697 H   0  0  0  0  0  0  0  0  0  0  0  0
    5.1257    1.1045   -2.7938 H   0  0  0  0  0  0  0  0  0  0  0  0
    3.3972   -0.2574   -1.6810 H   0  0  0  0  0  0  0  0  0  0  0  0
    2.6582   -3.3223    1.2550 H   0  0  0  0  0  0  0  0  0  0  0  0
   -4.3238   -0.7617    1.1616 H   0  0  0  0  0  0  0  0  0  0  0  0
   -3.1520   -1.6816    2.0879 H   0  0  0  0  0  0  0  0  0  0  0  0
   -4.5299   -2.5169    1.3400 H   0  0  0  0  0  0  0  0  0  0  0  0
  1  2  1  0
  2  3  1  0
  3  4  2  0
  4  5  1  0
  5  6  1  0
  6  7  2  0
  7  8  1  0
  8  9  2  0
  9 10  1  0
 10 11  1  0
  9 12  1  0
 12 13  2  0
 13 14  1  0
 14 15  2  0
 14 16  1  0
 12 17  1  0
 17 18  2  0
 18 19  1  0
 19 20  2  0
 20 21  1  0
 21 22  2  0
  7 23  1  0
 23 24  2  0
 23 25  1  0
 25 26  2  0
 26 27  1  0
 27 28  2  0
 28 29  1  0
 29 30  2  0
  6 31  1  0
  2 32  1  0
 11  2  1  0
 10  5  2  0
 16  8  1  0
 22 17  1  0
 30 25  1  0
  1 33  1  0
  1 34  1  0
  1 35  1  0
  3 36  1  0
  4 37  1  0
 13 38  1  0
 18 39  1  0
 19 40  1  0
 20 41  1  0
 21 42  1  0
 22 43  1  0
 26 44  1  0
 27 45  1  0
 28 46  1  0
 29 47  1  0
 30 48  1  0
 31 49  1  0
 32 50  1  0
 32 51  1  0
 32 52  1  0
M  END
>  <Name>  (528) 
Calanone

>  <PubChem ID>  (528) 
5352087

>  <CDB ID>  (528) 
CDB0528

>  <Smiles>  (528) 
CC1(C=CC2=C(C(=C3C(=C2O1)C(=CC(=O)O3)C4=CC=CC=C4)C(=O)C5=CC=CC=C5)O)C

>  <Chemical class>  (528) 
5,7-Dioxygenated Coumarins

>  <Natural source>  (528) 
Calophyllum teysmannii

>  <Molecular Formula>  (528) 
C27H20O5

>  <InChI-Key>  (528) 
YIMMSKZEXWJKNU-UHFFFAOYSA-N

>  <Total Molweight>  (528) 
424.451

>  <cLogP>  (528) 
4.8065

>  <cLogS>  (528) 
-6.638

>  <H-Acceptors>  (528) 
5

>  <H-Donors>  (528) 
1

>  <Rotatable Bonds>  (528) 
3

>  <Polar Surface Area>  (528) 
72.83

$$$$
CDB0529
     RDKit          3D

 54 59  0  0  0  0  0  0  0  0999 V2000
   -4.4863   -1.3147    1.1934 C   0  0  0  0  0  0  0  0  0  0  0  0
   -4.1214   -1.2628   -0.2962 C   0  0  0  0  0  0  0  0  0  0  0  0
   -3.9040    0.1658   -0.8217 C   0  0  0  0  0  0  0  0  0  0  0  0
   -2.8467    0.8296   -0.1138 O   0  0  0  0  0  0  0  0  0  0  0  0
   -1.6758    0.1244   -0.0594 C   0  0  0  0  0  0  0  0  0  0  0  0
   -1.5938   -1.2584   -0.2628 C   0  0  0  0  0  0  0  0  0  0  0  0
   -2.8349   -2.0549   -0.5704 C   0  0  0  0  0  0  0  0  0  0  0  0
   -2.8151   -2.4071   -1.9552 O   0  0  0  0  0  0  0  0  0  0  0  0
   -0.3265   -1.8815   -0.1748 C   0  0  0  0  0  0  0  0  0  0  0  0
    0.8510   -1.1910    0.1310 C   0  0  0  0  0  0  0  0  0  0  0  0
    2.1254   -1.9238    0.1947 C   0  0  0  0  0  0  0  0  0  0  0  0
    2.1098   -3.2448   -0.0461 C   0  0  0  0  0  0  0  0  0  0  0  0
    0.8912   -3.9936   -0.3696 C   0  0  0  0  0  0  0  0  0  0  0  0
    0.9273   -5.1986   -0.5863 O   0  0  0  0  0  0  0  0  0  0  0  0
   -0.2893   -3.2736   -0.4230 O   0  0  0  0  0  0  0  0  0  0  0  0
    3.4531   -1.3538    0.4936 C   0  0  0  0  0  0  0  0  0  0  0  0
    3.9444   -1.3548    1.8055 C   0  0  0  0  0  0  0  0  0  0  0  0
    5.2074   -0.8287    2.0828 C   0  0  0  0  0  0  0  0  0  0  0  0
    5.9853   -0.3009    1.0529 C   0  0  0  0  0  0  0  0  0  0  0  0
    5.5025   -0.2964   -0.2552 C   0  0  0  0  0  0  0  0  0  0  0  0
    4.2402   -0.8222   -0.5361 C   0  0  0  0  0  0  0  0  0  0  0  0
    0.7053    0.1714    0.3543 C   0  0  0  0  0  0  0  0  0  0  0  0
   -0.5286    0.8373    0.2619 C   0  0  0  0  0  0  0  0  0  0  0  0
   -0.3547    2.2881    0.5509 C   0  0  0  0  0  0  0  0  0  0  0  0
    1.1287    2.3584    0.9111 C   0  0  0  0  0  0  0  0  0  0  0  0
    0.5896    3.1866   -0.2340 C   0  0  0  0  0  0  0  0  0  0  0  0
    0.4621    4.6733   -0.0030 C   0  0  0  0  0  0  0  0  0  0  0  0
    0.9595    2.8441   -1.6562 C   0  0  0  0  0  0  0  0  0  0  0  0
    1.7421    1.0487    0.6465 O   0  0  0  0  0  0  0  0  0  0  0  0
   -5.1482    1.0405   -0.6954 C   0  0  0  0  0  0  0  0  0  0  0  0
   -5.4479   -0.8265    1.3797 H   0  0  0  0  0  0  0  0  0  0  0  0
   -4.5844   -2.3536    1.5272 H   0  0  0  0  0  0  0  0  0  0  0  0
   -3.7344   -0.8317    1.8249 H   0  0  0  0  0  0  0  0  0  0  0  0
   -4.9466   -1.7202   -0.8584 H   0  0  0  0  0  0  0  0  0  0  0  0
   -3.6367    0.1387   -1.8875 H   0  0  0  0  0  0  0  0  0  0  0  0
   -2.8497   -2.9868    0.0073 H   0  0  0  0  0  0  0  0  0  0  0  0
   -2.0237   -2.9580   -2.0927 H   0  0  0  0  0  0  0  0  0  0  0  0
    3.0118   -3.8482   -0.0195 H   0  0  0  0  0  0  0  0  0  0  0  0
    3.3449   -1.7578    2.6182 H   0  0  0  0  0  0  0  0  0  0  0  0
    5.5829   -0.8274    3.1027 H   0  0  0  0  0  0  0  0  0  0  0  0
    6.9673    0.1114    1.2705 H   0  0  0  0  0  0  0  0  0  0  0  0
    6.1071    0.1203   -1.0565 H   0  0  0  0  0  0  0  0  0  0  0  0
    3.8716   -0.8063   -1.5589 H   0  0  0  0  0  0  0  0  0  0  0  0
   -1.0575    2.7584    1.2306 H   0  0  0  0  0  0  0  0  0  0  0  0
    1.4071    2.8552    1.8335 H   0  0  0  0  0  0  0  0  0  0  0  0
   -0.3131    5.0941   -0.6518 H   0  0  0  0  0  0  0  0  0  0  0  0
    0.1945    4.9068    1.0334 H   0  0  0  0  0  0  0  0  0  0  0  0
    1.4093    5.1759   -0.2251 H   0  0  0  0  0  0  0  0  0  0  0  0
    1.9047    3.3283   -1.9243 H   0  0  0  0  0  0  0  0  0  0  0  0
    1.0815    1.7734   -1.8378 H   0  0  0  0  0  0  0  0  0  0  0  0
    0.1859    3.2066   -2.3417 H   0  0  0  0  0  0  0  0  0  0  0  0
   -5.3890    1.2526    0.3513 H   0  0  0  0  0  0  0  0  0  0  0  0
   -6.0140    0.5753   -1.1758 H   0  0  0  0  0  0  0  0  0  0  0  0
   -4.9714    2.0128   -1.1689 H   0  0  0  0  0  0  0  0  0  0  0  0
  1  2  1  0
  2  3  1  0
  3  4  1  0
  4  5  1  0
  5  6  2  0
  6  7  1  0
  7  8  1  0
  6  9  1  0
  9 10  2  0
 10 11  1  0
 11 12  2  0
 12 13  1  0
 13 14  2  0
 13 15  1  0
 11 16  1  0
 16 17  2  0
 17 18  1  0
 18 19  2  0
 19 20  1  0
 20 21  2  0
 10 22  1  0
 22 23  2  0
 23 24  1  0
 24 25  1  0
 25 26  1  0
 26 27  1  0
 26 28  1  0
 25 29  1  0
  3 30  1  0
  7  2  1  0
 23  5  1  0
 15  9  1  0
 21 16  1  0
 29 22  1  0
 26 24  1  0
  1 31  1  0
  1 32  1  0
  1 33  1  0
  2 34  1  0
  3 35  1  0
  7 36  1  0
  8 37  1  0
 12 38  1  0
 17 39  1  0
 18 40  1  0
 19 41  1  0
 20 42  1  0
 21 43  1  0
 24 44  1  0
 25 45  1  0
 27 46  1  0
 27 47  1  0
 27 48  1  0
 28 49  1  0
 28 50  1  0
 28 51  1  0
 30 52  1  0
 30 53  1  0
 30 54  1  0
M  END
>  <Name>  (529) 
Inophyllum G-2

>  <PubChem ID>  (529) 
455255

>  <CDB ID>  (529) 
CDB0529

>  <Smiles>  (529) 
CC1C(OC2=C(C1O)C3=C(C(=CC(=O)O3)C4=CC=CC=C4)C5=C2C6C(C6(C)C)O5)C

>  <Chemical class>  (529) 
5,7-Dioxygenated Coumarins

>  <Natural source>  (529) 
Calophyllum inophyllum

>  <Molecular Formula>  (529) 
C25H24O5

>  <InChI-Key>  (529) 
NDJILOHYAHLIPO-UHFFFAOYSA-N

>  <Total Molweight>  (529) 
404.461

>  <cLogP>  (529) 
4.6264

>  <cLogS>  (529) 
-5.468

>  <H-Acceptors>  (529) 
5

>  <H-Donors>  (529) 
1

>  <Rotatable Bonds>  (529) 
1

>  <Polar Surface Area>  (529) 
64.99

$$$$
CDB0530
     RDKit          3D

 54 58  0  0  0  0  0  0  0  0999 V2000
    4.7835   -0.7137    1.3261 C   0  0  0  0  0  0  0  0  0  0  0  0
    4.5265   -0.5651   -0.1791 C   0  0  0  0  0  0  0  0  0  0  0  0
    4.1860    0.8714   -0.6033 C   0  0  0  0  0  0  0  0  0  0  0  0
    3.0129    1.3468    0.0689 O   0  0  0  0  0  0  0  0  0  0  0  0
    1.9105    0.5319   -0.0419 C   0  0  0  0  0  0  0  0  0  0  0  0
    2.0191   -0.8269   -0.3540 C   0  0  0  0  0  0  0  0  0  0  0  0
    3.3597   -1.4549   -0.6229 C   0  0  0  0  0  0  0  0  0  0  0  0
    3.4566   -1.6573   -2.0345 O   0  0  0  0  0  0  0  0  0  0  0  0
    0.8401   -1.5905   -0.4152 C   0  0  0  0  0  0  0  0  0  0  0  0
   -0.4324   -1.0553   -0.1781 C   0  0  0  0  0  0  0  0  0  0  0  0
   -1.6033   -1.9594   -0.2885 C   0  0  0  0  0  0  0  0  0  0  0  0
   -1.3954   -3.2524   -0.5863 C   0  0  0  0  0  0  0  0  0  0  0  0
   -0.0685   -3.8288   -0.8081 C   0  0  0  0  0  0  0  0  0  0  0  0
    0.0709   -5.0206   -1.0563 O   0  0  0  0  0  0  0  0  0  0  0  0
    1.0016   -2.9635   -0.7169 O   0  0  0  0  0  0  0  0  0  0  0  0
   -3.0273   -1.6016   -0.1221 C   0  0  0  0  0  0  0  0  0  0  0  0
   -3.6399   -1.6982    1.1344 C   0  0  0  0  0  0  0  0  0  0  0  0
   -4.9893   -1.3739    1.2850 C   0  0  0  0  0  0  0  0  0  0  0  0
   -5.7341   -0.9557    0.1828 C   0  0  0  0  0  0  0  0  0  0  0  0
   -5.1323   -0.8599   -1.0714 C   0  0  0  0  0  0  0  0  0  0  0  0
   -3.7829   -1.1828   -1.2254 C   0  0  0  0  0  0  0  0  0  0  0  0
   -0.5081    0.3148    0.1472 C   0  0  0  0  0  0  0  0  0  0  0  0
    0.6537    1.1060    0.2264 C   0  0  0  0  0  0  0  0  0  0  0  0
    0.5335    2.5148    0.6005 C   0  0  0  0  0  0  0  0  0  0  0  0
   -0.6855    3.0495    0.7026 C   0  0  0  0  0  0  0  0  0  0  0  0
   -1.9413    2.2541    0.4642 C   0  0  0  0  0  0  0  0  0  0  0  0
   -1.7457    0.8304    0.4308 O   0  0  0  0  0  0  0  0  0  0  0  0
   -2.9290    2.5101    1.6089 C   0  0  0  0  0  0  0  0  0  0  0  0
   -2.5789    2.6680   -0.8669 C   0  0  0  0  0  0  0  0  0  0  0  0
    5.3088    1.8603   -0.3030 C   0  0  0  0  0  0  0  0  0  0  0  0
    4.9714   -1.7627    1.5801 H   0  0  0  0  0  0  0  0  0  0  0  0
    3.9376   -0.3712    1.9301 H   0  0  0  0  0  0  0  0  0  0  0  0
    5.6682   -0.1465    1.6315 H   0  0  0  0  0  0  0  0  0  0  0  0
    5.4363   -0.8804   -0.7072 H   0  0  0  0  0  0  0  0  0  0  0  0
    4.0017    0.9138   -1.6860 H   0  0  0  0  0  0  0  0  0  0  0  0
    3.4262   -2.4338   -0.1323 H   0  0  0  0  0  0  0  0  0  0  0  0
    4.0284   -2.4318   -2.1715 H   0  0  0  0  0  0  0  0  0  0  0  0
   -2.2104   -3.9628   -0.6842 H   0  0  0  0  0  0  0  0  0  0  0  0
   -3.0661   -2.0150    2.0019 H   0  0  0  0  0  0  0  0  0  0  0  0
   -5.4578   -1.4448    2.2630 H   0  0  0  0  0  0  0  0  0  0  0  0
   -6.7844   -0.7023    0.3019 H   0  0  0  0  0  0  0  0  0  0  0  0
   -5.7126   -0.5314   -1.9296 H   0  0  0  0  0  0  0  0  0  0  0  0
   -3.3217   -1.0981   -2.2065 H   0  0  0  0  0  0  0  0  0  0  0  0
    1.4283    3.1051    0.7636 H   0  0  0  0  0  0  0  0  0  0  0  0
   -0.7857    4.1036    0.9457 H   0  0  0  0  0  0  0  0  0  0  0  0
   -2.5105    2.1802    2.5675 H   0  0  0  0  0  0  0  0  0  0  0  0
   -3.8523    1.9370    1.4633 H   0  0  0  0  0  0  0  0  0  0  0  0
   -3.1932    3.5699    1.6949 H   0  0  0  0  0  0  0  0  0  0  0  0
   -2.8128    3.7380   -0.8930 H   0  0  0  0  0  0  0  0  0  0  0  0
   -3.5044    2.1092   -1.0468 H   0  0  0  0  0  0  0  0  0  0  0  0
   -1.9142    2.4412   -1.7090 H   0  0  0  0  0  0  0  0  0  0  0  0
    6.2548    1.5379   -0.7480 H   0  0  0  0  0  0  0  0  0  0  0  0
    5.4478    2.0001    0.7740 H   0  0  0  0  0  0  0  0  0  0  0  0
    5.0559    2.8473   -0.7066 H   0  0  0  0  0  0  0  0  0  0  0  0
  1  2  1  0
  2  3  1  0
  3  4  1  0
  4  5  1  0
  5  6  2  0
  6  7  1  0
  7  8  1  0
  6  9  1  0
  9 10  2  0
 10 11  1  0
 11 12  2  0
 12 13  1  0
 13 14  2  0
 13 15  1  0
 11 16  1  0
 16 17  2  0
 17 18  1  0
 18 19  2  0
 19 20  1  0
 20 21  2  0
 10 22  1  0
 22 23  2  0
 23 24  1  0
 24 25  2  0
 25 26  1  0
 26 27  1  0
 26 28  1  0
 26 29  1  0
  3 30  1  0
  7  2  1  0
 23  5  1  0
 15  9  1  0
 21 16  1  0
 27 22  1  0
  1 31  1  0
  1 32  1  0
  1 33  1  0
  2 34  1  0
  3 35  1  0
  7 36  1  0
  8 37  1  0
 12 38  1  0
 17 39  1  0
 18 40  1  0
 19 41  1  0
 20 42  1  0
 21 43  1  0
 24 44  1  0
 25 45  1  0
 28 46  1  0
 28 47  1  0
 28 48  1  0
 29 49  1  0
 29 50  1  0
 29 51  1  0
 30 52  1  0
 30 53  1  0
 30 54  1  0
M  END
>  <Name>  (530) 
Inophyllum P

>  <PubChem ID>  (530) 
455249

>  <CDB ID>  (530) 
CDB0530

>  <Smiles>  (530) 
CC1C(OC2=C(C1O)C3=C(C(=CC(=O)O3)C4=CC=CC=C4)C5=C2C=CC(O5)(C)C)C

>  <Chemical class>  (530) 
5,7-Dioxygenated Coumarins

>  <Natural source>  (530) 
Calophyllum inophyllum

>  <Molecular Formula>  (530) 
C25H24O5

>  <InChI-Key>  (530) 
BXENDTPSKAICGV-UHFFFAOYSA-N

>  <Total Molweight>  (530) 
404.461

>  <cLogP>  (530) 
4.458

>  <cLogS>  (530) 
-5.461

>  <H-Acceptors>  (530) 
5

>  <H-Donors>  (530) 
1

>  <Rotatable Bonds>  (530) 
1

>  <Polar Surface Area>  (530) 
64.99

$$$$
CDB0531
     RDKit          3D

 54 58  0  0  0  0  0  0  0  0999 V2000
    4.7835   -0.7137    1.3261 C   0  0  0  0  0  0  0  0  0  0  0  0
    4.5265   -0.5651   -0.1791 C   0  0  0  0  0  0  0  0  0  0  0  0
    4.1860    0.8714   -0.6033 C   0  0  0  0  0  0  0  0  0  0  0  0
    3.0129    1.3468    0.0689 O   0  0  0  0  0  0  0  0  0  0  0  0
    1.9105    0.5319   -0.0419 C   0  0  0  0  0  0  0  0  0  0  0  0
    2.0191   -0.8269   -0.3540 C   0  0  0  0  0  0  0  0  0  0  0  0
    3.3597   -1.4549   -0.6229 C   0  0  0  0  0  0  0  0  0  0  0  0
    3.4566   -1.6573   -2.0345 O   0  0  0  0  0  0  0  0  0  0  0  0
    0.8401   -1.5905   -0.4152 C   0  0  0  0  0  0  0  0  0  0  0  0
   -0.4324   -1.0553   -0.1781 C   0  0  0  0  0  0  0  0  0  0  0  0
   -1.6033   -1.9594   -0.2885 C   0  0  0  0  0  0  0  0  0  0  0  0
   -1.3954   -3.2524   -0.5863 C   0  0  0  0  0  0  0  0  0  0  0  0
   -0.0685   -3.8288   -0.8081 C   0  0  0  0  0  0  0  0  0  0  0  0
    0.0709   -5.0206   -1.0563 O   0  0  0  0  0  0  0  0  0  0  0  0
    1.0016   -2.9635   -0.7169 O   0  0  0  0  0  0  0  0  0  0  0  0
   -3.0273   -1.6016   -0.1221 C   0  0  0  0  0  0  0  0  0  0  0  0
   -3.6399   -1.6982    1.1344 C   0  0  0  0  0  0  0  0  0  0  0  0
   -4.9893   -1.3739    1.2850 C   0  0  0  0  0  0  0  0  0  0  0  0
   -5.7341   -0.9557    0.1828 C   0  0  0  0  0  0  0  0  0  0  0  0
   -5.1323   -0.8599   -1.0714 C   0  0  0  0  0  0  0  0  0  0  0  0
   -3.7829   -1.1828   -1.2254 C   0  0  0  0  0  0  0  0  0  0  0  0
   -0.5081    0.3148    0.1472 C   0  0  0  0  0  0  0  0  0  0  0  0
    0.6537    1.1060    0.2264 C   0  0  0  0  0  0  0  0  0  0  0  0
    0.5335    2.5148    0.6005 C   0  0  0  0  0  0  0  0  0  0  0  0
   -0.6855    3.0495    0.7026 C   0  0  0  0  0  0  0  0  0  0  0  0
   -1.9413    2.2541    0.4642 C   0  0  0  0  0  0  0  0  0  0  0  0
   -1.7457    0.8304    0.4308 O   0  0  0  0  0  0  0  0  0  0  0  0
   -2.9290    2.5101    1.6089 C   0  0  0  0  0  0  0  0  0  0  0  0
   -2.5789    2.6680   -0.8669 C   0  0  0  0  0  0  0  0  0  0  0  0
    5.3088    1.8603   -0.3030 C   0  0  0  0  0  0  0  0  0  0  0  0
    4.9714   -1.7627    1.5801 H   0  0  0  0  0  0  0  0  0  0  0  0
    3.9376   -0.3712    1.9301 H   0  0  0  0  0  0  0  0  0  0  0  0
    5.6682   -0.1465    1.6315 H   0  0  0  0  0  0  0  0  0  0  0  0
    5.4363   -0.8804   -0.7072 H   0  0  0  0  0  0  0  0  0  0  0  0
    4.0017    0.9138   -1.6860 H   0  0  0  0  0  0  0  0  0  0  0  0
    3.4262   -2.4338   -0.1323 H   0  0  0  0  0  0  0  0  0  0  0  0
    4.0284   -2.4318   -2.1715 H   0  0  0  0  0  0  0  0  0  0  0  0
   -2.2104   -3.9628   -0.6842 H   0  0  0  0  0  0  0  0  0  0  0  0
   -3.0661   -2.0150    2.0019 H   0  0  0  0  0  0  0  0  0  0  0  0
   -5.4578   -1.4448    2.2630 H   0  0  0  0  0  0  0  0  0  0  0  0
   -6.7844   -0.7023    0.3019 H   0  0  0  0  0  0  0  0  0  0  0  0
   -5.7126   -0.5314   -1.9296 H   0  0  0  0  0  0  0  0  0  0  0  0
   -3.3217   -1.0981   -2.2065 H   0  0  0  0  0  0  0  0  0  0  0  0
    1.4283    3.1051    0.7636 H   0  0  0  0  0  0  0  0  0  0  0  0
   -0.7857    4.1036    0.9457 H   0  0  0  0  0  0  0  0  0  0  0  0
   -2.5105    2.1802    2.5675 H   0  0  0  0  0  0  0  0  0  0  0  0
   -3.8523    1.9370    1.4633 H   0  0  0  0  0  0  0  0  0  0  0  0
   -3.1932    3.5699    1.6949 H   0  0  0  0  0  0  0  0  0  0  0  0
   -2.8128    3.7380   -0.8930 H   0  0  0  0  0  0  0  0  0  0  0  0
   -3.5044    2.1092   -1.0468 H   0  0  0  0  0  0  0  0  0  0  0  0
   -1.9142    2.4412   -1.7090 H   0  0  0  0  0  0  0  0  0  0  0  0
    6.2548    1.5379   -0.7480 H   0  0  0  0  0  0  0  0  0  0  0  0
    5.4478    2.0001    0.7740 H   0  0  0  0  0  0  0  0  0  0  0  0
    5.0559    2.8473   -0.7066 H   0  0  0  0  0  0  0  0  0  0  0  0
  1  2  1  0
  2  3  1  0
  3  4  1  0
  4  5  1  0
  5  6  2  0
  6  7  1  0
  7  8  1  0
  6  9  1  0
  9 10  2  0
 10 11  1  0
 11 12  2  0
 12 13  1  0
 13 14  2  0
 13 15  1  0
 11 16  1  0
 16 17  2  0
 17 18  1  0
 18 19  2  0
 19 20  1  0
 20 21  2  0
 10 22  1  0
 22 23  2  0
 23 24  1  0
 24 25  2  0
 25 26  1  0
 26 27  1  0
 26 28  1  0
 26 29  1  0
  3 30  1  0
  7  2  1  0
 23  5  1  0
 15  9  1  0
 21 16  1  0
 27 22  1  0
  1 31  1  0
  1 32  1  0
  1 33  1  0
  2 34  1  0
  3 35  1  0
  7 36  1  0
  8 37  1  0
 12 38  1  0
 17 39  1  0
 18 40  1  0
 19 41  1  0
 20 42  1  0
 21 43  1  0
 24 44  1  0
 25 45  1  0
 28 46  1  0
 28 47  1  0
 28 48  1  0
 29 49  1  0
 29 50  1  0
 29 51  1  0
 30 52  1  0
 30 53  1  0
 30 54  1  0
M  END
>  <Name>  (531) 
Inophyllum D

>  <PubChem ID>  (531) 
455250

>  <CDB ID>  (531) 
CDB0531

>  <Smiles>  (531) 
CC1C(OC2=C(C1O)C3=C(C(=CC(=O)O3)C4=CC=CC=C4)C5=C2C=CC(O5)(C)C)C

>  <Chemical class>  (531) 
5,7-Dioxygenated Coumarins

>  <Natural source>  (531) 
Calophyllum inophyllum

>  <Molecular Formula>  (531) 
C25H24O5

>  <InChI-Key>  (531) 
BXENDTPSKAICGV-UHFFFAOYSA-N

>  <Total Molweight>  (531) 
404.461

>  <cLogP>  (531) 
4.458

>  <cLogS>  (531) 
-5.461

>  <H-Acceptors>  (531) 
5

>  <H-Donors>  (531) 
1

>  <Rotatable Bonds>  (531) 
1

>  <Polar Surface Area>  (531) 
64.99

$$$$
CDB0532
     RDKit          3D

 54 58  0  0  0  0  0  0  0  0999 V2000
    4.7835   -0.7137    1.3261 C   0  0  0  0  0  0  0  0  0  0  0  0
    4.5265   -0.5651   -0.1791 C   0  0  0  0  0  0  0  0  0  0  0  0
    4.1860    0.8714   -0.6033 C   0  0  0  0  0  0  0  0  0  0  0  0
    3.0129    1.3468    0.0689 O   0  0  0  0  0  0  0  0  0  0  0  0
    1.9105    0.5319   -0.0419 C   0  0  0  0  0  0  0  0  0  0  0  0
    2.0191   -0.8269   -0.3540 C   0  0  0  0  0  0  0  0  0  0  0  0
    3.3597   -1.4549   -0.6229 C   0  0  0  0  0  0  0  0  0  0  0  0
    3.4566   -1.6573   -2.0345 O   0  0  0  0  0  0  0  0  0  0  0  0
    0.8401   -1.5905   -0.4152 C   0  0  0  0  0  0  0  0  0  0  0  0
   -0.4324   -1.0553   -0.1781 C   0  0  0  0  0  0  0  0  0  0  0  0
   -1.6033   -1.9594   -0.2885 C   0  0  0  0  0  0  0  0  0  0  0  0
   -1.3954   -3.2524   -0.5863 C   0  0  0  0  0  0  0  0  0  0  0  0
   -0.0685   -3.8288   -0.8081 C   0  0  0  0  0  0  0  0  0  0  0  0
    0.0709   -5.0206   -1.0563 O   0  0  0  0  0  0  0  0  0  0  0  0
    1.0016   -2.9635   -0.7169 O   0  0  0  0  0  0  0  0  0  0  0  0
   -3.0273   -1.6016   -0.1221 C   0  0  0  0  0  0  0  0  0  0  0  0
   -3.6399   -1.6982    1.1344 C   0  0  0  0  0  0  0  0  0  0  0  0
   -4.9893   -1.3739    1.2850 C   0  0  0  0  0  0  0  0  0  0  0  0
   -5.7341   -0.9557    0.1828 C   0  0  0  0  0  0  0  0  0  0  0  0
   -5.1323   -0.8599   -1.0714 C   0  0  0  0  0  0  0  0  0  0  0  0
   -3.7829   -1.1828   -1.2254 C   0  0  0  0  0  0  0  0  0  0  0  0
   -0.5081    0.3148    0.1472 C   0  0  0  0  0  0  0  0  0  0  0  0
    0.6537    1.1060    0.2264 C   0  0  0  0  0  0  0  0  0  0  0  0
    0.5335    2.5148    0.6005 C   0  0  0  0  0  0  0  0  0  0  0  0
   -0.6855    3.0495    0.7026 C   0  0  0  0  0  0  0  0  0  0  0  0
   -1.9413    2.2541    0.4642 C   0  0  0  0  0  0  0  0  0  0  0  0
   -1.7457    0.8304    0.4308 O   0  0  0  0  0  0  0  0  0  0  0  0
   -2.9290    2.5101    1.6089 C   0  0  0  0  0  0  0  0  0  0  0  0
   -2.5789    2.6680   -0.8669 C   0  0  0  0  0  0  0  0  0  0  0  0
    5.3088    1.8603   -0.3030 C   0  0  0  0  0  0  0  0  0  0  0  0
    4.9714   -1.7627    1.5801 H   0  0  0  0  0  0  0  0  0  0  0  0
    3.9376   -0.3712    1.9301 H   0  0  0  0  0  0  0  0  0  0  0  0
    5.6682   -0.1465    1.6315 H   0  0  0  0  0  0  0  0  0  0  0  0
    5.4363   -0.8804   -0.7072 H   0  0  0  0  0  0  0  0  0  0  0  0
    4.0017    0.9138   -1.6860 H   0  0  0  0  0  0  0  0  0  0  0  0
    3.4262   -2.4338   -0.1323 H   0  0  0  0  0  0  0  0  0  0  0  0
    4.0284   -2.4318   -2.1715 H   0  0  0  0  0  0  0  0  0  0  0  0
   -2.2104   -3.9628   -0.6842 H   0  0  0  0  0  0  0  0  0  0  0  0
   -3.0661   -2.0150    2.0019 H   0  0  0  0  0  0  0  0  0  0  0  0
   -5.4578   -1.4448    2.2630 H   0  0  0  0  0  0  0  0  0  0  0  0
   -6.7844   -0.7023    0.3019 H   0  0  0  0  0  0  0  0  0  0  0  0
   -5.7126   -0.5314   -1.9296 H   0  0  0  0  0  0  0  0  0  0  0  0
   -3.3217   -1.0981   -2.2065 H   0  0  0  0  0  0  0  0  0  0  0  0
    1.4283    3.1051    0.7636 H   0  0  0  0  0  0  0  0  0  0  0  0
   -0.7857    4.1036    0.9457 H   0  0  0  0  0  0  0  0  0  0  0  0
   -2.5105    2.1802    2.5675 H   0  0  0  0  0  0  0  0  0  0  0  0
   -3.8523    1.9370    1.4633 H   0  0  0  0  0  0  0  0  0  0  0  0
   -3.1932    3.5699    1.6949 H   0  0  0  0  0  0  0  0  0  0  0  0
   -2.8128    3.7380   -0.8930 H   0  0  0  0  0  0  0  0  0  0  0  0
   -3.5044    2.1092   -1.0468 H   0  0  0  0  0  0  0  0  0  0  0  0
   -1.9142    2.4412   -1.7090 H   0  0  0  0  0  0  0  0  0  0  0  0
    6.2548    1.5379   -0.7480 H   0  0  0  0  0  0  0  0  0  0  0  0
    5.4478    2.0001    0.7740 H   0  0  0  0  0  0  0  0  0  0  0  0
    5.0559    2.8473   -0.7066 H   0  0  0  0  0  0  0  0  0  0  0  0
  1  2  1  0
  2  3  1  0
  3  4  1  0
  4  5  1  0
  5  6  2  0
  6  7  1  0
  7  8  1  0
  6  9  1  0
  9 10  2  0
 10 11  1  0
 11 12  2  0
 12 13  1  0
 13 14  2  0
 13 15  1  0
 11 16  1  0
 16 17  2  0
 17 18  1  0
 18 19  2  0
 19 20  1  0
 20 21  2  0
 10 22  1  0
 22 23  2  0
 23 24  1  0
 24 25  2  0
 25 26  1  0
 26 27  1  0
 26 28  1  0
 26 29  1  0
  3 30  1  0
  7  2  1  0
 23  5  1  0
 15  9  1  0
 21 16  1  0
 27 22  1  0
  1 31  1  0
  1 32  1  0
  1 33  1  0
  2 34  1  0
  3 35  1  0
  7 36  1  0
  8 37  1  0
 12 38  1  0
 17 39  1  0
 18 40  1  0
 19 41  1  0
 20 42  1  0
 21 43  1  0
 24 44  1  0
 25 45  1  0
 28 46  1  0
 28 47  1  0
 28 48  1  0
 29 49  1  0
 29 50  1  0
 29 51  1  0
 30 52  1  0
 30 53  1  0
 30 54  1  0
M  END
>  <Name>  (532) 
Inophyllum B

>  <PubChem ID>  (532) 
72412

>  <CDB ID>  (532) 
CDB0532

>  <Smiles>  (532) 
CC1C(OC2=C(C1O)C3=C(C(=CC(=O)O3)C4=CC=CC=C4)C5=C2C=CC(O5)(C)C)C

>  <Chemical class>  (532) 
5,7-Dioxygenated Coumarins

>  <Natural source>  (532) 
Calophyllum inophyllum

>  <Molecular Formula>  (532) 
C25H24O5

>  <InChI-Key>  (532) 
BXENDTPSKAICGV-UHFFFAOYSA-N

>  <Total Molweight>  (532) 
404.461

>  <cLogP>  (532) 
4.458

>  <cLogS>  (532) 
-5.461

>  <H-Acceptors>  (532) 
5

>  <H-Donors>  (532) 
1

>  <Rotatable Bonds>  (532) 
1

>  <Polar Surface Area>  (532) 
64.99

$$$$
CDB0533
     RDKit          3D

 54 58  0  0  0  0  0  0  0  0999 V2000
    4.7835   -0.7137    1.3261 C   0  0  0  0  0  0  0  0  0  0  0  0
    4.5265   -0.5651   -0.1791 C   0  0  0  0  0  0  0  0  0  0  0  0
    4.1860    0.8714   -0.6033 C   0  0  0  0  0  0  0  0  0  0  0  0
    3.0129    1.3468    0.0689 O   0  0  0  0  0  0  0  0  0  0  0  0
    1.9105    0.5319   -0.0419 C   0  0  0  0  0  0  0  0  0  0  0  0
    2.0191   -0.8269   -0.3540 C   0  0  0  0  0  0  0  0  0  0  0  0
    3.3597   -1.4549   -0.6229 C   0  0  0  0  0  0  0  0  0  0  0  0
    3.4566   -1.6573   -2.0345 O   0  0  0  0  0  0  0  0  0  0  0  0
    0.8401   -1.5905   -0.4152 C   0  0  0  0  0  0  0  0  0  0  0  0
   -0.4324   -1.0553   -0.1781 C   0  0  0  0  0  0  0  0  0  0  0  0
   -1.6033   -1.9594   -0.2885 C   0  0  0  0  0  0  0  0  0  0  0  0
   -1.3954   -3.2524   -0.5863 C   0  0  0  0  0  0  0  0  0  0  0  0
   -0.0685   -3.8288   -0.8081 C   0  0  0  0  0  0  0  0  0  0  0  0
    0.0709   -5.0206   -1.0563 O   0  0  0  0  0  0  0  0  0  0  0  0
    1.0016   -2.9635   -0.7169 O   0  0  0  0  0  0  0  0  0  0  0  0
   -3.0273   -1.6016   -0.1221 C   0  0  0  0  0  0  0  0  0  0  0  0
   -3.6399   -1.6982    1.1344 C   0  0  0  0  0  0  0  0  0  0  0  0
   -4.9893   -1.3739    1.2850 C   0  0  0  0  0  0  0  0  0  0  0  0
   -5.7341   -0.9557    0.1828 C   0  0  0  0  0  0  0  0  0  0  0  0
   -5.1323   -0.8599   -1.0714 C   0  0  0  0  0  0  0  0  0  0  0  0
   -3.7829   -1.1828   -1.2254 C   0  0  0  0  0  0  0  0  0  0  0  0
   -0.5081    0.3148    0.1472 C   0  0  0  0  0  0  0  0  0  0  0  0
    0.6537    1.1060    0.2264 C   0  0  0  0  0  0  0  0  0  0  0  0
    0.5335    2.5148    0.6005 C   0  0  0  0  0  0  0  0  0  0  0  0
   -0.6855    3.0495    0.7026 C   0  0  0  0  0  0  0  0  0  0  0  0
   -1.9413    2.2541    0.4642 C   0  0  0  0  0  0  0  0  0  0  0  0
   -1.7457    0.8304    0.4308 O   0  0  0  0  0  0  0  0  0  0  0  0
   -2.9290    2.5101    1.6089 C   0  0  0  0  0  0  0  0  0  0  0  0
   -2.5789    2.6680   -0.8669 C   0  0  0  0  0  0  0  0  0  0  0  0
    5.3088    1.8603   -0.3030 C   0  0  0  0  0  0  0  0  0  0  0  0
    4.9714   -1.7627    1.5801 H   0  0  0  0  0  0  0  0  0  0  0  0
    3.9376   -0.3712    1.9301 H   0  0  0  0  0  0  0  0  0  0  0  0
    5.6682   -0.1465    1.6315 H   0  0  0  0  0  0  0  0  0  0  0  0
    5.4363   -0.8804   -0.7072 H   0  0  0  0  0  0  0  0  0  0  0  0
    4.0017    0.9138   -1.6860 H   0  0  0  0  0  0  0  0  0  0  0  0
    3.4262   -2.4338   -0.1323 H   0  0  0  0  0  0  0  0  0  0  0  0
    4.0284   -2.4318   -2.1715 H   0  0  0  0  0  0  0  0  0  0  0  0
   -2.2104   -3.9628   -0.6842 H   0  0  0  0  0  0  0  0  0  0  0  0
   -3.0661   -2.0150    2.0019 H   0  0  0  0  0  0  0  0  0  0  0  0
   -5.4578   -1.4448    2.2630 H   0  0  0  0  0  0  0  0  0  0  0  0
   -6.7844   -0.7023    0.3019 H   0  0  0  0  0  0  0  0  0  0  0  0
   -5.7126   -0.5314   -1.9296 H   0  0  0  0  0  0  0  0  0  0  0  0
   -3.3217   -1.0981   -2.2065 H   0  0  0  0  0  0  0  0  0  0  0  0
    1.4283    3.1051    0.7636 H   0  0  0  0  0  0  0  0  0  0  0  0
   -0.7857    4.1036    0.9457 H   0  0  0  0  0  0  0  0  0  0  0  0
   -2.5105    2.1802    2.5675 H   0  0  0  0  0  0  0  0  0  0  0  0
   -3.8523    1.9370    1.4633 H   0  0  0  0  0  0  0  0  0  0  0  0
   -3.1932    3.5699    1.6949 H   0  0  0  0  0  0  0  0  0  0  0  0
   -2.8128    3.7380   -0.8930 H   0  0  0  0  0  0  0  0  0  0  0  0
   -3.5044    2.1092   -1.0468 H   0  0  0  0  0  0  0  0  0  0  0  0
   -1.9142    2.4412   -1.7090 H   0  0  0  0  0  0  0  0  0  0  0  0
    6.2548    1.5379   -0.7480 H   0  0  0  0  0  0  0  0  0  0  0  0
    5.4478    2.0001    0.7740 H   0  0  0  0  0  0  0  0  0  0  0  0
    5.0559    2.8473   -0.7066 H   0  0  0  0  0  0  0  0  0  0  0  0
  1  2  1  0
  2  3  1  0
  3  4  1  0
  4  5  1  0
  5  6  2  0
  6  7  1  0
  7  8  1  0
  6  9  1  0
  9 10  2  0
 10 11  1  0
 11 12  2  0
 12 13  1  0
 13 14  2  0
 13 15  1  0
 11 16  1  0
 16 17  2  0
 17 18  1  0
 18 19  2  0
 19 20  1  0
 20 21  2  0
 10 22  1  0
 22 23  2  0
 23 24  1  0
 24 25  2  0
 25 26  1  0
 26 27  1  0
 26 28  1  0
 26 29  1  0
  3 30  1  0
  7  2  1  0
 23  5  1  0
 15  9  1  0
 21 16  1  0
 27 22  1  0
  1 31  1  0
  1 32  1  0
  1 33  1  0
  2 34  1  0
  3 35  1  0
  7 36  1  0
  8 37  1  0
 12 38  1  0
 17 39  1  0
 18 40  1  0
 19 41  1  0
 20 42  1  0
 21 43  1  0
 24 44  1  0
 25 45  1  0
 28 46  1  0
 28 47  1  0
 28 48  1  0
 29 49  1  0
 29 50  1  0
 29 51  1  0
 30 52  1  0
 30 53  1  0
 30 54  1  0
M  END
>  <Name>  (533) 
Inophyllum A

>  <PubChem ID>  (533) 
455248

>  <CDB ID>  (533) 
CDB0533

>  <Smiles>  (533) 
CC1C(OC2=C(C1O)C3=C(C(=CC(=O)O3)C4=CC=CC=C4)C5=C2C=CC(O5)(C)C)C

>  <Chemical class>  (533) 
5,7-Dioxygenated Coumarins

>  <Natural source>  (533) 
Calophyllum inophyllum

>  <Molecular Formula>  (533) 
C25H24O5

>  <InChI-Key>  (533) 
BXENDTPSKAICGV-UHFFFAOYSA-N

>  <Total Molweight>  (533) 
404.461

>  <cLogP>  (533) 
4.458

>  <cLogS>  (533) 
-5.461

>  <H-Acceptors>  (533) 
5

>  <H-Donors>  (533) 
1

>  <Rotatable Bonds>  (533) 
1

>  <Polar Surface Area>  (533) 
64.99

$$$$
CDB0534
     RDKit          3D

 54 58  0  0  0  0  0  0  0  0999 V2000
    4.7835   -0.7137    1.3261 C   0  0  0  0  0  0  0  0  0  0  0  0
    4.5265   -0.5651   -0.1791 C   0  0  0  0  0  0  0  0  0  0  0  0
    4.1860    0.8714   -0.6033 C   0  0  0  0  0  0  0  0  0  0  0  0
    3.0129    1.3468    0.0689 O   0  0  0  0  0  0  0  0  0  0  0  0
    1.9105    0.5319   -0.0419 C   0  0  0  0  0  0  0  0  0  0  0  0
    2.0191   -0.8269   -0.3540 C   0  0  0  0  0  0  0  0  0  0  0  0
    3.3597   -1.4549   -0.6229 C   0  0  0  0  0  0  0  0  0  0  0  0
    3.4566   -1.6573   -2.0345 O   0  0  0  0  0  0  0  0  0  0  0  0
    0.8401   -1.5905   -0.4152 C   0  0  0  0  0  0  0  0  0  0  0  0
   -0.4324   -1.0553   -0.1781 C   0  0  0  0  0  0  0  0  0  0  0  0
   -1.6033   -1.9594   -0.2885 C   0  0  0  0  0  0  0  0  0  0  0  0
   -1.3954   -3.2524   -0.5863 C   0  0  0  0  0  0  0  0  0  0  0  0
   -0.0685   -3.8288   -0.8081 C   0  0  0  0  0  0  0  0  0  0  0  0
    0.0709   -5.0206   -1.0563 O   0  0  0  0  0  0  0  0  0  0  0  0
    1.0016   -2.9635   -0.7169 O   0  0  0  0  0  0  0  0  0  0  0  0
   -3.0273   -1.6016   -0.1221 C   0  0  0  0  0  0  0  0  0  0  0  0
   -3.6399   -1.6982    1.1344 C   0  0  0  0  0  0  0  0  0  0  0  0
   -4.9893   -1.3739    1.2850 C   0  0  0  0  0  0  0  0  0  0  0  0
   -5.7341   -0.9557    0.1828 C   0  0  0  0  0  0  0  0  0  0  0  0
   -5.1323   -0.8599   -1.0714 C   0  0  0  0  0  0  0  0  0  0  0  0
   -3.7829   -1.1828   -1.2254 C   0  0  0  0  0  0  0  0  0  0  0  0
   -0.5081    0.3148    0.1472 C   0  0  0  0  0  0  0  0  0  0  0  0
    0.6537    1.1060    0.2264 C   0  0  0  0  0  0  0  0  0  0  0  0
    0.5335    2.5148    0.6005 C   0  0  0  0  0  0  0  0  0  0  0  0
   -0.6855    3.0495    0.7026 C   0  0  0  0  0  0  0  0  0  0  0  0
   -1.9413    2.2541    0.4642 C   0  0  0  0  0  0  0  0  0  0  0  0
   -1.7457    0.8304    0.4308 O   0  0  0  0  0  0  0  0  0  0  0  0
   -2.9290    2.5101    1.6089 C   0  0  0  0  0  0  0  0  0  0  0  0
   -2.5789    2.6680   -0.8669 C   0  0  0  0  0  0  0  0  0  0  0  0
    5.3088    1.8603   -0.3030 C   0  0  0  0  0  0  0  0  0  0  0  0
    4.9714   -1.7627    1.5801 H   0  0  0  0  0  0  0  0  0  0  0  0
    3.9376   -0.3712    1.9301 H   0  0  0  0  0  0  0  0  0  0  0  0
    5.6682   -0.1465    1.6315 H   0  0  0  0  0  0  0  0  0  0  0  0
    5.4363   -0.8804   -0.7072 H   0  0  0  0  0  0  0  0  0  0  0  0
    4.0017    0.9138   -1.6860 H   0  0  0  0  0  0  0  0  0  0  0  0
    3.4262   -2.4338   -0.1323 H   0  0  0  0  0  0  0  0  0  0  0  0
    4.0284   -2.4318   -2.1715 H   0  0  0  0  0  0  0  0  0  0  0  0
   -2.2104   -3.9628   -0.6842 H   0  0  0  0  0  0  0  0  0  0  0  0
   -3.0661   -2.0150    2.0019 H   0  0  0  0  0  0  0  0  0  0  0  0
   -5.4578   -1.4448    2.2630 H   0  0  0  0  0  0  0  0  0  0  0  0
   -6.7844   -0.7023    0.3019 H   0  0  0  0  0  0  0  0  0  0  0  0
   -5.7126   -0.5314   -1.9296 H   0  0  0  0  0  0  0  0  0  0  0  0
   -3.3217   -1.0981   -2.2065 H   0  0  0  0  0  0  0  0  0  0  0  0
    1.4283    3.1051    0.7636 H   0  0  0  0  0  0  0  0  0  0  0  0
   -0.7857    4.1036    0.9457 H   0  0  0  0  0  0  0  0  0  0  0  0
   -2.5105    2.1802    2.5675 H   0  0  0  0  0  0  0  0  0  0  0  0
   -3.8523    1.9370    1.4633 H   0  0  0  0  0  0  0  0  0  0  0  0
   -3.1932    3.5699    1.6949 H   0  0  0  0  0  0  0  0  0  0  0  0
   -2.8128    3.7380   -0.8930 H   0  0  0  0  0  0  0  0  0  0  0  0
   -3.5044    2.1092   -1.0468 H   0  0  0  0  0  0  0  0  0  0  0  0
   -1.9142    2.4412   -1.7090 H   0  0  0  0  0  0  0  0  0  0  0  0
    6.2548    1.5379   -0.7480 H   0  0  0  0  0  0  0  0  0  0  0  0
    5.4478    2.0001    0.7740 H   0  0  0  0  0  0  0  0  0  0  0  0
    5.0559    2.8473   -0.7066 H   0  0  0  0  0  0  0  0  0  0  0  0
  1  2  1  0
  2  3  1  0
  3  4  1  0
  4  5  1  0
  5  6  2  0
  6  7  1  0
  7  8  1  0
  6  9  1  0
  9 10  2  0
 10 11  1  0
 11 12  2  0
 12 13  1  0
 13 14  2  0
 13 15  1  0
 11 16  1  0
 16 17  2  0
 17 18  1  0
 18 19  2  0
 19 20  1  0
 20 21  2  0
 10 22  1  0
 22 23  2  0
 23 24  1  0
 24 25  2  0
 25 26  1  0
 26 27  1  0
 26 28  1  0
 26 29  1  0
  3 30  1  0
  7  2  1  0
 23  5  1  0
 15  9  1  0
 21 16  1  0
 27 22  1  0
  1 31  1  0
  1 32  1  0
  1 33  1  0
  2 34  1  0
  3 35  1  0
  7 36  1  0
  8 37  1  0
 12 38  1  0
 17 39  1  0
 18 40  1  0
 19 41  1  0
 20 42  1  0
 21 43  1  0
 24 44  1  0
 25 45  1  0
 28 46  1  0
 28 47  1  0
 28 48  1  0
 29 49  1  0
 29 50  1  0
 29 51  1  0
 30 52  1  0
 30 53  1  0
 30 54  1  0
M  END
>  <Name>  (534) 
Soulattrolide

>  <PubChem ID>  (534) 
72978

>  <CDB ID>  (534) 
CDB0534

>  <Smiles>  (534) 
CC1C(OC2=C(C1O)C3=C(C(=CC(=O)O3)C4=CC=CC=C4)C5=C2C=CC(O5)(C)C)C

>  <Chemical class>  (534) 
5,7-Dioxygenated Coumarins

>  <Natural source>  (534) 
Calophyllum soulauri

>  <Molecular Formula>  (534) 
C25H24O5

>  <InChI-Key>  (534) 
BXENDTPSKAICGV-UHFFFAOYSA-N

>  <Total Molweight>  (534) 
404.461

>  <cLogP>  (534) 
4.458

>  <cLogS>  (534) 
-5.461

>  <H-Acceptors>  (534) 
5

>  <H-Donors>  (534) 
1

>  <Rotatable Bonds>  (534) 
1

>  <Polar Surface Area>  (534) 
64.99

$$$$
CDB0535
     RDKit          3D

 52 56  0  0  0  0  0  0  0  0999 V2000
    5.9982   -0.7961   -0.8788 C   0  0  0  0  0  0  0  0  0  0  0  0
    4.6005   -0.1885   -0.9475 C   0  0  0  0  0  0  0  0  0  0  0  0
    4.3800    0.9182    0.0786 C   0  0  0  0  0  0  0  0  0  0  0  0
    3.0855    1.5129   -0.0809 O   0  0  0  0  0  0  0  0  0  0  0  0
    2.0210    0.6491   -0.1737 C   0  0  0  0  0  0  0  0  0  0  0  0
    2.1562   -0.7053   -0.4872 C   0  0  0  0  0  0  0  0  0  0  0  0
    3.5201   -1.2293   -0.7548 C   0  0  0  0  0  0  0  0  0  0  0  0
    3.7487   -2.4295   -0.8444 O   0  0  0  0  0  0  0  0  0  0  0  0
    1.0099   -1.5153   -0.5538 C   0  0  0  0  0  0  0  0  0  0  0  0
   -0.2767   -1.0077   -0.3194 C   0  0  0  0  0  0  0  0  0  0  0  0
   -1.4286   -1.9411   -0.4042 C   0  0  0  0  0  0  0  0  0  0  0  0
   -1.1993   -3.2274   -0.7131 C   0  0  0  0  0  0  0  0  0  0  0  0
    0.1327   -3.7706   -0.9806 C   0  0  0  0  0  0  0  0  0  0  0  0
    0.2825   -4.9506   -1.2720 O   0  0  0  0  0  0  0  0  0  0  0  0
    1.1802   -2.8787   -0.8876 O   0  0  0  0  0  0  0  0  0  0  0  0
   -2.8553   -1.6263   -0.1804 C   0  0  0  0  0  0  0  0  0  0  0  0
   -3.4009   -1.6978    1.1083 C   0  0  0  0  0  0  0  0  0  0  0  0
   -4.7520   -1.4143    1.3160 C   0  0  0  0  0  0  0  0  0  0  0  0
   -5.5651   -1.0621    0.2393 C   0  0  0  0  0  0  0  0  0  0  0  0
   -5.0303   -0.9924   -1.0466 C   0  0  0  0  0  0  0  0  0  0  0  0
   -3.6797   -1.2751   -1.2580 C   0  0  0  0  0  0  0  0  0  0  0  0
   -0.3940    0.3686   -0.0264 C   0  0  0  0  0  0  0  0  0  0  0  0
    0.7428    1.1951    0.0466 C   0  0  0  0  0  0  0  0  0  0  0  0
    0.5755    2.6098    0.3799 C   0  0  0  0  0  0  0  0  0  0  0  0
   -0.6598    3.1094    0.4604 C   0  0  0  0  0  0  0  0  0  0  0  0
   -1.8907    2.2723    0.2397 C   0  0  0  0  0  0  0  0  0  0  0  0
   -1.6493    0.8558    0.2221 O   0  0  0  0  0  0  0  0  0  0  0  0
   -2.5459    2.6465   -1.0944 C   0  0  0  0  0  0  0  0  0  0  0  0
   -2.8811    2.5124    1.3852 C   0  0  0  0  0  0  0  0  0  0  0  0
    4.6018    0.5350    1.5437 C   0  0  0  0  0  0  0  0  0  0  0  0
    6.1524   -1.4978   -1.7063 H   0  0  0  0  0  0  0  0  0  0  0  0
    6.1567   -1.3550    0.0494 H   0  0  0  0  0  0  0  0  0  0  0  0
    6.7666   -0.0198   -0.9520 H   0  0  0  0  0  0  0  0  0  0  0  0
    4.4526    0.2196   -1.9568 H   0  0  0  0  0  0  0  0  0  0  0  0
    5.0916    1.7232   -0.1456 H   0  0  0  0  0  0  0  0  0  0  0  0
   -1.9986   -3.9584   -0.7885 H   0  0  0  0  0  0  0  0  0  0  0  0
   -2.7751   -1.9658    1.9561 H   0  0  0  0  0  0  0  0  0  0  0  0
   -5.1691   -1.4671    2.3182 H   0  0  0  0  0  0  0  0  0  0  0  0
   -6.6169   -0.8417    0.4028 H   0  0  0  0  0  0  0  0  0  0  0  0
   -5.6649   -0.7175   -1.8851 H   0  0  0  0  0  0  0  0  0  0  0  0
   -3.2728   -1.2133   -2.2644 H   0  0  0  0  0  0  0  0  0  0  0  0
    1.4476    3.2360    0.5338 H   0  0  0  0  0  0  0  0  0  0  0  0
   -0.7937    4.1661    0.6757 H   0  0  0  0  0  0  0  0  0  0  0  0
   -2.8164    3.7074   -1.1340 H   0  0  0  0  0  0  0  0  0  0  0  0
   -3.4521    2.0537   -1.2641 H   0  0  0  0  0  0  0  0  0  0  0  0
   -1.8761    2.4312   -1.9355 H   0  0  0  0  0  0  0  0  0  0  0  0
   -3.7874    1.9103    1.2504 H   0  0  0  0  0  0  0  0  0  0  0  0
   -2.4492    2.2067    2.3459 H   0  0  0  0  0  0  0  0  0  0  0  0
   -3.1767    3.5647    1.4596 H   0  0  0  0  0  0  0  0  0  0  0  0
    4.3691    1.3859    2.1938 H   0  0  0  0  0  0  0  0  0  0  0  0
    5.6382    0.2388    1.7288 H   0  0  0  0  0  0  0  0  0  0  0  0
    3.9474   -0.2840    1.8585 H   0  0  0  0  0  0  0  0  0  0  0  0
  1  2  1  0
  2  3  1  0
  3  4  1  0
  4  5  1  0
  5  6  2  0
  6  7  1  0
  7  8  2  0
  6  9  1  0
  9 10  2  0
 10 11  1  0
 11 12  2  0
 12 13  1  0
 13 14  2  0
 13 15  1  0
 11 16  1  0
 16 17  2  0
 17 18  1  0
 18 19  2  0
 19 20  1  0
 20 21  2  0
 10 22  1  0
 22 23  2  0
 23 24  1  0
 24 25  2  0
 25 26  1  0
 26 27  1  0
 26 28  1  0
 26 29  1  0
  3 30  1  0
  7  2  1  0
 23  5  1  0
 15  9  1  0
 21 16  1  0
 27 22  1  0
  1 31  1  0
  1 32  1  0
  1 33  1  0
  2 34  1  0
  3 35  1  0
 12 36  1  0
 17 37  1  0
 18 38  1  0
 19 39  1  0
 20 40  1  0
 21 41  1  0
 24 42  1  0
 25 43  1  0
 28 44  1  0
 28 45  1  0
 28 46  1  0
 29 47  1  0
 29 48  1  0
 29 49  1  0
 30 50  1  0
 30 51  1  0
 30 52  1  0
M  END
>  <Name>  (535) 
Inophyllum C

>  <PubChem ID>  (535) 
455252

>  <CDB ID>  (535) 
CDB0535

>  <Smiles>  (535) 
CC1C(OC2=C(C1=O)C3=C(C(=CC(=O)O3)C4=CC=CC=C4)C5=C2C=CC(O5)(C)C)C

>  <Chemical class>  (535) 
5,7-Dioxygenated Coumarins

>  <Natural source>  (535) 
Calophyllum inophyllum

>  <Molecular Formula>  (535) 
C25H22O5

>  <InChI-Key>  (535) 
YRHQANFINIANSK-UHFFFAOYSA-N

>  <Total Molweight>  (535) 
402.445

>  <cLogP>  (535) 
4.6332

>  <cLogS>  (535) 
-6.19

>  <H-Acceptors>  (535) 
5

>  <H-Donors>  (535) 
0

>  <Rotatable Bonds>  (535) 
1

>  <Polar Surface Area>  (535) 
61.83

$$$$
CDB0536
     RDKit          3D

 52 56  0  0  0  0  0  0  0  0999 V2000
    5.9982   -0.7961   -0.8788 C   0  0  0  0  0  0  0  0  0  0  0  0
    4.6005   -0.1885   -0.9475 C   0  0  0  0  0  0  0  0  0  0  0  0
    4.3800    0.9182    0.0786 C   0  0  0  0  0  0  0  0  0  0  0  0
    3.0855    1.5129   -0.0809 O   0  0  0  0  0  0  0  0  0  0  0  0
    2.0210    0.6491   -0.1737 C   0  0  0  0  0  0  0  0  0  0  0  0
    2.1562   -0.7053   -0.4872 C   0  0  0  0  0  0  0  0  0  0  0  0
    3.5201   -1.2293   -0.7548 C   0  0  0  0  0  0  0  0  0  0  0  0
    3.7487   -2.4295   -0.8444 O   0  0  0  0  0  0  0  0  0  0  0  0
    1.0099   -1.5153   -0.5538 C   0  0  0  0  0  0  0  0  0  0  0  0
   -0.2767   -1.0077   -0.3194 C   0  0  0  0  0  0  0  0  0  0  0  0
   -1.4286   -1.9411   -0.4042 C   0  0  0  0  0  0  0  0  0  0  0  0
   -1.1993   -3.2274   -0.7131 C   0  0  0  0  0  0  0  0  0  0  0  0
    0.1327   -3.7706   -0.9806 C   0  0  0  0  0  0  0  0  0  0  0  0
    0.2825   -4.9506   -1.2720 O   0  0  0  0  0  0  0  0  0  0  0  0
    1.1802   -2.8787   -0.8876 O   0  0  0  0  0  0  0  0  0  0  0  0
   -2.8553   -1.6263   -0.1804 C   0  0  0  0  0  0  0  0  0  0  0  0
   -3.4009   -1.6978    1.1083 C   0  0  0  0  0  0  0  0  0  0  0  0
   -4.7520   -1.4143    1.3160 C   0  0  0  0  0  0  0  0  0  0  0  0
   -5.5651   -1.0621    0.2393 C   0  0  0  0  0  0  0  0  0  0  0  0
   -5.0303   -0.9924   -1.0466 C   0  0  0  0  0  0  0  0  0  0  0  0
   -3.6797   -1.2751   -1.2580 C   0  0  0  0  0  0  0  0  0  0  0  0
   -0.3940    0.3686   -0.0264 C   0  0  0  0  0  0  0  0  0  0  0  0
    0.7428    1.1951    0.0466 C   0  0  0  0  0  0  0  0  0  0  0  0
    0.5755    2.6098    0.3799 C   0  0  0  0  0  0  0  0  0  0  0  0
   -0.6598    3.1094    0.4604 C   0  0  0  0  0  0  0  0  0  0  0  0
   -1.8907    2.2723    0.2397 C   0  0  0  0  0  0  0  0  0  0  0  0
   -1.6493    0.8558    0.2221 O   0  0  0  0  0  0  0  0  0  0  0  0
   -2.5459    2.6465   -1.0944 C   0  0  0  0  0  0  0  0  0  0  0  0
   -2.8811    2.5124    1.3852 C   0  0  0  0  0  0  0  0  0  0  0  0
    4.6018    0.5350    1.5437 C   0  0  0  0  0  0  0  0  0  0  0  0
    6.1524   -1.4978   -1.7063 H   0  0  0  0  0  0  0  0  0  0  0  0
    6.1567   -1.3550    0.0494 H   0  0  0  0  0  0  0  0  0  0  0  0
    6.7666   -0.0198   -0.9520 H   0  0  0  0  0  0  0  0  0  0  0  0
    4.4526    0.2196   -1.9568 H   0  0  0  0  0  0  0  0  0  0  0  0
    5.0916    1.7232   -0.1456 H   0  0  0  0  0  0  0  0  0  0  0  0
   -1.9986   -3.9584   -0.7885 H   0  0  0  0  0  0  0  0  0  0  0  0
   -2.7751   -1.9658    1.9561 H   0  0  0  0  0  0  0  0  0  0  0  0
   -5.1691   -1.4671    2.3182 H   0  0  0  0  0  0  0  0  0  0  0  0
   -6.6169   -0.8417    0.4028 H   0  0  0  0  0  0  0  0  0  0  0  0
   -5.6649   -0.7175   -1.8851 H   0  0  0  0  0  0  0  0  0  0  0  0
   -3.2728   -1.2133   -2.2644 H   0  0  0  0  0  0  0  0  0  0  0  0
    1.4476    3.2360    0.5338 H   0  0  0  0  0  0  0  0  0  0  0  0
   -0.7937    4.1661    0.6757 H   0  0  0  0  0  0  0  0  0  0  0  0
   -2.8164    3.7074   -1.1340 H   0  0  0  0  0  0  0  0  0  0  0  0
   -3.4521    2.0537   -1.2641 H   0  0  0  0  0  0  0  0  0  0  0  0
   -1.8761    2.4312   -1.9355 H   0  0  0  0  0  0  0  0  0  0  0  0
   -3.7874    1.9103    1.2504 H   0  0  0  0  0  0  0  0  0  0  0  0
   -2.4492    2.2067    2.3459 H   0  0  0  0  0  0  0  0  0  0  0  0
   -3.1767    3.5647    1.4596 H   0  0  0  0  0  0  0  0  0  0  0  0
    4.3691    1.3859    2.1938 H   0  0  0  0  0  0  0  0  0  0  0  0
    5.6382    0.2388    1.7288 H   0  0  0  0  0  0  0  0  0  0  0  0
    3.9474   -0.2840    1.8585 H   0  0  0  0  0  0  0  0  0  0  0  0
  1  2  1  0
  2  3  1  0
  3  4  1  0
  4  5  1  0
  5  6  2  0
  6  7  1  0
  7  8  2  0
  6  9  1  0
  9 10  2  0
 10 11  1  0
 11 12  2  0
 12 13  1  0
 13 14  2  0
 13 15  1  0
 11 16  1  0
 16 17  2  0
 17 18  1  0
 18 19  2  0
 19 20  1  0
 20 21  2  0
 10 22  1  0
 22 23  2  0
 23 24  1  0
 24 25  2  0
 25 26  1  0
 26 27  1  0
 26 28  1  0
 26 29  1  0
  3 30  1  0
  7  2  1  0
 23  5  1  0
 15  9  1  0
 21 16  1  0
 27 22  1  0
  1 31  1  0
  1 32  1  0
  1 33  1  0
  2 34  1  0
  3 35  1  0
 12 36  1  0
 17 37  1  0
 18 38  1  0
 19 39  1  0
 20 40  1  0
 21 41  1  0
 24 42  1  0
 25 43  1  0
 28 44  1  0
 28 45  1  0
 28 46  1  0
 29 47  1  0
 29 48  1  0
 29 49  1  0
 30 50  1  0
 30 51  1  0
 30 52  1  0
M  END
>  <Name>  (536) 
Trans-( -)-Inophyllolide

>  <PubChem ID>  (536) 
5254

>  <CDB ID>  (536) 
CDB0536

>  <Smiles>  (536) 
CC1C(OC2=C(C1=O)C3=C(C(=CC(=O)O3)C4=CC=CC=C4)C5=C2C=CC(O5)(C)C)C

>  <Chemical class>  (536) 
5,7-Dioxygenated Coumarins

>  <Natural source>  (536) 
Ca/ophyllum teysmannii

>  <Molecular Formula>  (536) 
C25H22O5

>  <InChI-Key>  (536) 
YRHQANFINIANSK-UHFFFAOYSA-N

>  <Total Molweight>  (536) 
402.445

>  <cLogP>  (536) 
4.6332

>  <cLogS>  (536) 
-6.19

>  <H-Acceptors>  (536) 
5

>  <H-Donors>  (536) 
0

>  <Rotatable Bonds>  (536) 
1

>  <Polar Surface Area>  (536) 
61.83

$$$$
CDB0537
     RDKit          3D

 19 20  0  0  0  0  0  0  0  0999 V2000
    1.9235   -0.9912    0.5597 C   0  0  0  0  0  0  0  0  0  0  0  0
    2.8993   -0.0807    0.6295 C   0  0  0  0  0  0  0  0  0  0  0  0
    2.6680    1.3503    0.3656 C   0  0  0  0  0  0  0  0  0  0  0  0
    3.5872    2.1574    0.4390 O   0  0  0  0  0  0  0  0  0  0  0  0
    1.3734    1.7281    0.0347 O   0  0  0  0  0  0  0  0  0  0  0  0
    0.3323    0.7803   -0.0433 C   0  0  0  0  0  0  0  0  0  0  0  0
   -0.9347    1.2561   -0.3830 C   0  0  0  0  0  0  0  0  0  0  0  0
   -1.9749    0.3416   -0.4659 C   0  0  0  0  0  0  0  0  0  0  0  0
   -1.7465   -1.0121   -0.2142 C   0  0  0  0  0  0  0  0  0  0  0  0
   -0.4812   -1.4797    0.1240 C   0  0  0  0  0  0  0  0  0  0  0  0
    0.5757   -0.5725    0.2115 C   0  0  0  0  0  0  0  0  0  0  0  0
   -2.7795   -1.9019   -0.2992 O   0  0  0  0  0  0  0  0  0  0  0  0
   -3.2477    0.7198   -0.7922 O   0  0  0  0  0  0  0  0  0  0  0  0
    2.1171   -2.0398    0.7583 H   0  0  0  0  0  0  0  0  0  0  0  0
    3.9160   -0.3529    0.8857 H   0  0  0  0  0  0  0  0  0  0  0  0
   -1.0821    2.3132   -0.5731 H   0  0  0  0  0  0  0  0  0  0  0  0
   -0.3369   -2.5391    0.3137 H   0  0  0  0  0  0  0  0  0  0  0  0
   -3.5554   -1.3589   -0.5451 H   0  0  0  0  0  0  0  0  0  0  0  0
   -3.2534    1.6822   -0.9380 H   0  0  0  0  0  0  0  0  0  0  0  0
  1  2  2  0
  2  3  1  0
  3  4  2  0
  3  5  1  0
  5  6  1  0
  6  7  1  0
  7  8  2  0
  8  9  1  0
  9 10  2  0
 10 11  1  0
  9 12  1  0
  8 13  1  0
 11  1  1  0
 11  6  2  0
  1 14  1  0
  2 15  1  0
  7 16  1  0
 10 17  1  0
 12 18  1  0
 13 19  1  0
M  END
>  <Name>  (537) 
Aesculetin

>  <PubChem ID>  (537) 
5281416

>  <CDB ID>  (537) 
CDB0537

>  <Smiles>  (537) 
C1=CC(=O)OC2=CC(=C(C=C21)O)O

>  <Chemical class>  (537) 
6,7-Dioxygenated Coumarins

>  <Natural source>  (537) 
Euphorbia lathyris

>  <Molecular Formula>  (537) 
C9H6O4

>  <InChI-Key>  (537) 
ILEDWLMCKZNDJK-UHFFFAOYSA-N

>  <Total Molweight>  (537) 
178.143

>  <cLogP>  (537) 
0.806

>  <cLogS>  (537) 
-1.778

>  <H-Acceptors>  (537) 
4

>  <H-Donors>  (537) 
2

>  <Rotatable Bonds>  (537) 
0

>  <Polar Surface Area>  (537) 
66.76

$$$$
CDB0538
     RDKit          3D

 22 23  0  0  0  0  0  0  0  0999 V2000
    3.3845   -1.0428    0.8947 C   0  0  0  0  0  0  0  0  0  0  0  0
    2.9206   -0.1451   -0.1038 O   0  0  0  0  0  0  0  0  0  0  0  0
    1.5661    0.0208   -0.2238 C   0  0  0  0  0  0  0  0  0  0  0  0
    1.1359    0.9145   -1.2201 C   0  0  0  0  0  0  0  0  0  0  0  0
   -0.2224    1.1671   -1.4387 C   0  0  0  0  0  0  0  0  0  0  0  0
   -1.1752    0.5198   -0.6527 C   0  0  0  0  0  0  0  0  0  0  0  0
   -2.6016    0.7387   -0.8296 C   0  0  0  0  0  0  0  0  0  0  0  0
   -3.4692    0.0902   -0.0465 C   0  0  0  0  0  0  0  0  0  0  0  0
   -3.0391   -0.8503    1.0032 C   0  0  0  0  0  0  0  0  0  0  0  0
   -3.8638   -1.4271    1.7023 O   0  0  0  0  0  0  0  0  0  0  0  0
   -1.6724   -1.0423    1.1523 O   0  0  0  0  0  0  0  0  0  0  0  0
   -0.7448   -0.3652    0.3337 C   0  0  0  0  0  0  0  0  0  0  0  0
    0.6082   -0.6238    0.5593 C   0  0  0  0  0  0  0  0  0  0  0  0
    2.0748    1.5492   -1.9909 O   0  0  0  0  0  0  0  0  0  0  0  0
    3.0334   -2.0622    0.7033 H   0  0  0  0  0  0  0  0  0  0  0  0
    3.0943   -0.7052    1.8951 H   0  0  0  0  0  0  0  0  0  0  0  0
    4.4779   -1.0546    0.8522 H   0  0  0  0  0  0  0  0  0  0  0  0
   -0.5349    1.8607   -2.2130 H   0  0  0  0  0  0  0  0  0  0  0  0
   -2.9436    1.4261   -1.5954 H   0  0  0  0  0  0  0  0  0  0  0  0
   -4.5394    0.2250   -0.1457 H   0  0  0  0  0  0  0  0  0  0  0  0
    0.8765   -1.3232    1.3426 H   0  0  0  0  0  0  0  0  0  0  0  0
    1.6340    2.1298   -2.6298 H   0  0  0  0  0  0  0  0  0  0  0  0
  1  2  1  0
  2  3  1  0
  3  4  1  0
  4  5  2  0
  5  6  1  0
  6  7  1  0
  7  8  2  0
  8  9  1  0
  9 10  2  0
  9 11  1  0
 11 12  1  0
 12 13  1  0
  4 14  1  0
 13  3  2  0
 12  6  2  0
  1 15  1  0
  1 16  1  0
  1 17  1  0
  5 18  1  0
  7 19  1  0
  8 20  1  0
 13 21  1  0
 14 22  1  0
M  END
>  <Name>  (538) 
Isoscopoletin

>  <PubChem ID>  (538) 
69894

>  <CDB ID>  (538) 
CDB0538

>  <Smiles>  (538) 
COC1=C(C=C2C=CC(=O)OC2=C1)O

>  <Chemical class>  (538) 
6,7-Dioxygenated Coumarins

>  <Natural source>  (538) 
Artemisia messerschmidiana

>  <Molecular Formula>  (538) 
C10H8O4

>  <InChI-Key>  (538) 
SYTYLPHCLSSCOJ-UHFFFAOYSA-N

>  <Total Molweight>  (538) 
192.17

>  <cLogP>  (538) 
1.0817

>  <cLogS>  (538) 
-2.092

>  <H-Acceptors>  (538) 
4

>  <H-Donors>  (538) 
1

>  <Rotatable Bonds>  (538) 
1

>  <Polar Surface Area>  (538) 
55.76

$$$$
CDB0539
     RDKit          3D

 32 33  0  0  0  0  0  0  0  0999 V2000
   -4.7517    0.3440   -0.2337 C   0  0  0  0  0  0  0  0  0  0  0  0
   -3.6482   -0.3330    0.5316 C   0  0  0  0  0  0  0  0  0  0  0  0
   -2.3290   -0.1409    0.3294 C   0  0  0  0  0  0  0  0  0  0  0  0
   -1.6684    0.7908   -0.6467 C   0  0  0  0  0  0  0  0  0  0  0  0
   -0.6188    1.5096    0.0110 O   0  0  0  0  0  0  0  0  0  0  0  0
    0.6568    1.0137   -0.0497 C   0  0  0  0  0  0  0  0  0  0  0  0
    1.6488    1.8879    0.4202 C   0  0  0  0  0  0  0  0  0  0  0  0
    2.9978    1.5405    0.4328 C   0  0  0  0  0  0  0  0  0  0  0  0
    3.3775    0.2823   -0.0274 C   0  0  0  0  0  0  0  0  0  0  0  0
    4.7653   -0.1491   -0.0423 C   0  0  0  0  0  0  0  0  0  0  0  0
    5.0701   -1.3711   -0.4895 C   0  0  0  0  0  0  0  0  0  0  0  0
    4.0477   -2.3144   -0.9749 C   0  0  0  0  0  0  0  0  0  0  0  0
    4.3637   -3.4277   -1.3779 O   0  0  0  0  0  0  0  0  0  0  0  0
    2.7291   -1.8798   -0.9510 O   0  0  0  0  0  0  0  0  0  0  0  0
    2.3910   -0.5922   -0.4839 C   0  0  0  0  0  0  0  0  0  0  0  0
    1.0364   -0.2474   -0.4995 C   0  0  0  0  0  0  0  0  0  0  0  0
    1.3037    3.1286    0.8864 O   0  0  0  0  0  0  0  0  0  0  0  0
   -4.1294   -1.2946    1.5878 C   0  0  0  0  0  0  0  0  0  0  0  0
   -5.3183    1.0057    0.4294 H   0  0  0  0  0  0  0  0  0  0  0  0
   -5.4390   -0.4044   -0.6429 H   0  0  0  0  0  0  0  0  0  0  0  0
   -4.3936    0.9387   -1.0769 H   0  0  0  0  0  0  0  0  0  0  0  0
   -1.6318   -0.7090    0.9441 H   0  0  0  0  0  0  0  0  0  0  0  0
   -1.3192    0.2615   -1.5395 H   0  0  0  0  0  0  0  0  0  0  0  0
   -2.3668    1.5550   -0.9981 H   0  0  0  0  0  0  0  0  0  0  0  0
    3.7286    2.2535    0.8029 H   0  0  0  0  0  0  0  0  0  0  0  0
    5.5344    0.5291    0.3111 H   0  0  0  0  0  0  0  0  0  0  0  0
    6.0917   -1.7302   -0.5166 H   0  0  0  0  0  0  0  0  0  0  0  0
    0.3218   -0.9825   -0.8511 H   0  0  0  0  0  0  0  0  0  0  0  0
    0.3289    3.1641    0.8224 H   0  0  0  0  0  0  0  0  0  0  0  0
   -4.7538   -0.7713    2.3194 H   0  0  0  0  0  0  0  0  0  0  0  0
   -3.3029   -1.7636    2.1319 H   0  0  0  0  0  0  0  0  0  0  0  0
   -4.7226   -2.0938    1.1313 H   0  0  0  0  0  0  0  0  0  0  0  0
  1  2  1  0
  2  3  2  3
  3  4  1  0
  4  5  1  0
  5  6  1  0
  6  7  1  0
  7  8  2  0
  8  9  1  0
  9 10  1  0
 10 11  2  0
 11 12  1  0
 12 13  2  0
 12 14  1  0
 14 15  1  0
 15 16  1  0
  7 17  1  0
  2 18  1  0
 16  6  2  0
 15  9  2  0
  1 19  1  0
  1 20  1  0
  1 21  1  0
  3 22  1  0
  4 23  1  0
  4 24  1  0
  8 25  1  0
 10 26  1  0
 11 27  1  0
 16 28  1  0
 17 29  1  0
 18 30  1  0
 18 31  1  0
 18 32  1  0
M  END
>  <Name>  (539) 
Prenyletin

>  <PubChem ID>  (539) 
3873459

>  <CDB ID>  (539) 
CDB0539

>  <Smiles>  (539) 
CC(=CCOC1=C(C=C2C=CC(=O)OC2=C1)O)C

>  <Chemical class>  (539) 
6,7-Dioxygenated Coumarins

>  <Natural source>  (539) 
Ptaeroxylon obliquum

>  <Molecular Formula>  (539) 
C14H14O4

>  <InChI-Key>  (539) 
AWEFUQDNSBBNCR-UHFFFAOYSA-N

>  <Total Molweight>  (539) 
246.261

>  <cLogP>  (539) 
2.751

>  <cLogS>  (539) 
-2.828

>  <H-Acceptors>  (539) 
4

>  <H-Donors>  (539) 
1

>  <Rotatable Bonds>  (539) 
3

>  <Polar Surface Area>  (539) 
55.76

$$$$
CDB0540
     RDKit          3D

 33 34  0  0  0  0  0  0  0  0999 V2000
   -3.7094    1.8395   -0.8101 C   0  0  0  0  0  0  0  0  0  0  0  0
   -3.8133    0.5758    0.0040 C   0  0  0  0  0  0  0  0  0  0  0  0
   -2.7672   -0.0380    0.5986 C   0  0  0  0  0  0  0  0  0  0  0  0
   -1.3162    0.3435    0.5867 C   0  0  0  0  0  0  0  0  0  0  0  0
   -0.5934   -0.7897    0.0991 O   0  0  0  0  0  0  0  0  0  0  0  0
    0.7706   -0.6726    0.0326 C   0  0  0  0  0  0  0  0  0  0  0  0
    1.4337   -1.7966   -0.4820 C   0  0  0  0  0  0  0  0  0  0  0  0
    2.8195   -1.8416   -0.6157 C   0  0  0  0  0  0  0  0  0  0  0  0
    3.5738   -0.7372   -0.2269 C   0  0  0  0  0  0  0  0  0  0  0  0
    5.0228   -0.7131   -0.3375 C   0  0  0  0  0  0  0  0  0  0  0  0
    5.6949    0.3748    0.0509 C   0  0  0  0  0  0  0  0  0  0  0  0
    5.0233    1.5685    0.5939 C   0  0  0  0  0  0  0  0  0  0  0  0
    5.6714    2.5497    0.9387 O   0  0  0  0  0  0  0  0  0  0  0  0
    3.6389    1.5215    0.6912 O   0  0  0  0  0  0  0  0  0  0  0  0
    2.9148    0.3809    0.2855 C   0  0  0  0  0  0  0  0  0  0  0  0
    1.5247    0.4307    0.4221 C   0  0  0  0  0  0  0  0  0  0  0  0
    0.7161   -2.8955   -0.8727 O   0  0  0  0  0  0  0  0  0  0  0  0
   -5.2356    0.0628    0.1050 C   0  0  0  0  0  0  0  0  0  0  0  0
   -5.2971   -1.2441    0.6548 O   0  0  0  0  0  0  0  0  0  0  0  0
   -4.3864    2.6009   -0.4077 H   0  0  0  0  0  0  0  0  0  0  0  0
   -3.9936    1.6410   -1.8489 H   0  0  0  0  0  0  0  0  0  0  0  0
   -2.7097    2.2769   -0.8199 H   0  0  0  0  0  0  0  0  0  0  0  0
   -2.9616   -0.9270    1.1987 H   0  0  0  0  0  0  0  0  0  0  0  0
   -1.0130    0.5676    1.6164 H   0  0  0  0  0  0  0  0  0  0  0  0
   -1.1179    1.2071   -0.0521 H   0  0  0  0  0  0  0  0  0  0  0  0
    3.2876   -2.7344   -1.0197 H   0  0  0  0  0  0  0  0  0  0  0  0
    5.5381   -1.5811   -0.7345 H   0  0  0  0  0  0  0  0  0  0  0  0
    6.7746    0.4322   -0.0153 H   0  0  0  0  0  0  0  0  0  0  0  0
    1.0774    1.3299    0.8295 H   0  0  0  0  0  0  0  0  0  0  0  0
   -0.2180   -2.6658   -0.6990 H   0  0  0  0  0  0  0  0  0  0  0  0
   -5.7025    0.0279   -0.8851 H   0  0  0  0  0  0  0  0  0  0  0  0
   -5.8281    0.7285    0.7407 H   0  0  0  0  0  0  0  0  0  0  0  0
   -4.8191   -1.8231    0.0372 H   0  0  0  0  0  0  0  0  0  0  0  0
  1  2  1  0
  2  3  2  3
  3  4  1  0
  4  5  1  0
  5  6  1  0
  6  7  1  0
  7  8  2  0
  8  9  1  0
  9 10  1  0
 10 11  2  0
 11 12  1  0
 12 13  2  0
 12 14  1  0
 14 15  1  0
 15 16  1  0
  7 17  1  0
  2 18  1  0
 18 19  1  0
 16  6  2  0
 15  9  2  0
  1 20  1  0
  1 21  1  0
  1 22  1  0
  3 23  1  0
  4 24  1  0
  4 25  1  0
  8 26  1  0
 10 27  1  0
 11 28  1  0
 16 29  1  0
 17 30  1  0
 18 31  1  0
 18 32  1  0
 19 33  1  0
M  END
>  <Name>  (540) 
Haplopinol

>  <PubChem ID>  (540) 
102187242

>  <CDB ID>  (540) 
CDB0540

>  <Smiles>  (540) 
CC(=CCOC1=C(C=C2C=CC(=O)OC2=C1)O)CO

>  <Chemical class>  (540) 
6,7-Dioxygenated Coumarins

>  <Natural source>  (540) 
Haplopappus multifolius

>  <Molecular Formula>  (540) 
C14H14O5

>  <InChI-Key>  (540) 
KIKJJTKUYYKDFT-UHFFFAOYSA-N

>  <Total Molweight>  (540) 
262.26

>  <cLogP>  (540) 
1.8243

>  <cLogS>  (540) 
-2.321

>  <H-Acceptors>  (540) 
5

>  <H-Donors>  (540) 
2

>  <Rotatable Bonds>  (540) 
4

>  <Polar Surface Area>  (540) 
75.99

$$$$
CDB0541
     RDKit          3D

 40 42  0  0  0  0  0  0  0  0999 V2000
    5.1414   -1.7352    0.3302 C   0  0  0  0  0  0  0  0  0  0  0  0
    5.8484   -1.6104   -0.7972 C   0  0  0  0  0  0  0  0  0  0  0  0
    5.3976   -0.7816   -1.9294 C   0  0  0  0  0  0  0  0  0  0  0  0
    6.0751   -0.6921   -2.9463 O   0  0  0  0  0  0  0  0  0  0  0  0
    4.1855   -0.1222   -1.7804 O   0  0  0  0  0  0  0  0  0  0  0  0
    3.4275   -0.2437   -0.5988 C   0  0  0  0  0  0  0  0  0  0  0  0
    2.2253    0.4551   -0.5386 C   0  0  0  0  0  0  0  0  0  0  0  0
    1.4537    0.3461    0.6129 C   0  0  0  0  0  0  0  0  0  0  0  0
    1.8910   -0.4268    1.6931 C   0  0  0  0  0  0  0  0  0  0  0  0
    3.0975   -1.1237    1.6231 C   0  0  0  0  0  0  0  0  0  0  0  0
    3.8747   -1.0331    0.4636 C   0  0  0  0  0  0  0  0  0  0  0  0
    1.1051   -0.4923    2.8114 O   0  0  0  0  0  0  0  0  0  0  0  0
    0.2886    1.0550    0.7117 O   0  0  0  0  0  0  0  0  0  0  0  0
   -0.8192    0.3119    0.1670 C   0  0  0  0  0  0  0  0  0  0  0  0
   -1.9866    0.4853    1.1611 C   0  0  0  0  0  0  0  0  0  0  0  0
   -3.2675   -0.1914    0.6509 C   0  0  0  0  0  0  0  0  0  0  0  0
   -3.1931   -0.4910   -0.8521 C   0  0  0  0  0  0  0  0  0  0  0  0
   -2.4549    0.6253   -1.6097 C   0  0  0  0  0  0  0  0  0  0  0  0
   -1.1138    0.8282   -1.1372 O   0  0  0  0  0  0  0  0  0  0  0  0
   -3.1842    1.9816   -1.6278 C   0  0  0  0  0  0  0  0  0  0  0  0
   -4.5297    1.8506   -2.0719 O   0  0  0  0  0  0  0  0  0  0  0  0
   -4.4795   -0.7820   -1.3900 O   0  0  0  0  0  0  0  0  0  0  0  0
   -4.3884    0.6598    0.9493 O   0  0  0  0  0  0  0  0  0  0  0  0
   -1.6820   -0.0484    2.4610 O   0  0  0  0  0  0  0  0  0  0  0  0
    5.4977   -2.3518    1.1480 H   0  0  0  0  0  0  0  0  0  0  0  0
    6.7963   -2.1163   -0.9359 H   0  0  0  0  0  0  0  0  0  0  0  0
    1.8967    1.0723   -1.3692 H   0  0  0  0  0  0  0  0  0  0  0  0
    3.4345   -1.7309    2.4577 H   0  0  0  0  0  0  0  0  0  0  0  0
    1.5693   -1.0089    3.4931 H   0  0  0  0  0  0  0  0  0  0  0  0
   -0.5725   -0.7563    0.0781 H   0  0  0  0  0  0  0  0  0  0  0  0
   -2.1632    1.5564    1.3188 H   0  0  0  0  0  0  0  0  0  0  0  0
   -3.4636   -1.1312    1.1816 H   0  0  0  0  0  0  0  0  0  0  0  0
   -2.6019   -1.4082   -0.9711 H   0  0  0  0  0  0  0  0  0  0  0  0
   -2.3774    0.3059   -2.6570 H   0  0  0  0  0  0  0  0  0  0  0  0
   -2.6601    2.6695   -2.3011 H   0  0  0  0  0  0  0  0  0  0  0  0
   -3.1816    2.4513   -0.6397 H   0  0  0  0  0  0  0  0  0  0  0  0
   -4.9250    2.7401   -2.0346 H   0  0  0  0  0  0  0  0  0  0  0  0
   -4.9575    0.0765   -1.4043 H   0  0  0  0  0  0  0  0  0  0  0  0
   -4.4709    0.6599    1.9215 H   0  0  0  0  0  0  0  0  0  0  0  0
   -0.7335    0.1465    2.6292 H   0  0  0  0  0  0  0  0  0  0  0  0
  1  2  2  0
  2  3  1  0
  3  4  2  0
  3  5  1  0
  5  6  1  0
  6  7  1  0
  7  8  2  0
  8  9  1  0
  9 10  2  0
 10 11  1  0
  9 12  1  0
  8 13  1  0
 13 14  1  0
 14 15  1  0
 15 16  1  0
 16 17  1  0
 17 18  1  0
 18 19  1  0
 18 20  1  0
 20 21  1  0
 17 22  1  0
 16 23  1  0
 15 24  1  0
 11  1  1  0
 11  6  2  0
 19 14  1  0
  1 25  1  0
  2 26  1  0
  7 27  1  0
 10 28  1  0
 12 29  1  0
 14 30  1  0
 15 31  1  0
 16 32  1  0
 17 33  1  0
 18 34  1  0
 20 35  1  0
 20 36  1  0
 21 37  1  0
 22 38  1  0
 23 39  1  0
 24 40  1  0
M  END
>  <Name>  (541) 
Cichoriin

>  <PubChem ID>  (541) 
442101

>  <CDB ID>  (541) 
CDB0541

>  <Smiles>  (541) 
C1=CC(=O)OC2=CC(=C(C=C21)O)OC3C(C(C(C(O3)CO)O)O)O

>  <Chemical class>  (541) 
6,7-Dioxygenated Coumarins

>  <Natural source>  (541) 
Cichorium intybus

>  <Molecular Formula>  (541) 
C15H16O9

>  <InChI-Key>  (541) 
WNBCMONIPIJTSB-UHFFFAOYSA-N

>  <Total Molweight>  (541) 
340.283

>  <cLogP>  (541) 
-1.1833

>  <cLogS>  (541) 
-1.664

>  <H-Acceptors>  (541) 
9

>  <H-Donors>  (541) 
5

>  <Rotatable Bonds>  (541) 
3

>  <Polar Surface Area>  (541) 
145.91

$$$$
CDB0542
     RDKit          3D

 60 63  0  0  0  0  0  0  0  0999 V2000
    7.0867    2.0712   -0.0120 C   0  0  0  0  0  0  0  0  0  0  0  0
    5.8733    1.1856    0.2521 C   0  0  0  0  0  0  0  0  0  0  0  0
    5.9574   -0.1289   -0.5556 C   0  0  0  0  0  0  0  0  0  0  0  0
    5.2218   -0.0201   -1.8948 C   0  0  0  0  0  0  0  0  0  0  0  0
    3.7892    0.5342   -1.7633 C   0  0  0  0  0  0  0  0  0  0  0  0
    3.5616    1.2370   -0.4069 C   0  0  0  0  0  0  0  0  0  0  0  0
    4.7209    1.9885   -0.0621 O   0  0  0  0  0  0  0  0  0  0  0  0
    3.2678    0.2870    0.6276 O   0  0  0  0  0  0  0  0  0  0  0  0
    2.0630    0.5829    1.3392 C   0  0  0  0  0  0  0  0  0  0  0  0
    0.8137    0.1845    0.5399 C   0  0  0  0  0  0  0  0  0  0  0  0
    0.8004   -1.3321    0.2409 C   0  0  0  0  0  0  0  0  0  0  0  0
   -0.1968   -2.0444    1.1510 C   0  0  0  0  0  0  0  0  0  0  0  0
   -1.6149   -1.4566    1.0403 C   0  0  0  0  0  0  0  0  0  0  0  0
   -1.5582    0.0639    0.7238 C   0  0  0  0  0  0  0  0  0  0  0  0
   -0.3388    0.6005    1.2906 O   0  0  0  0  0  0  0  0  0  0  0  0
   -2.6562    0.8011    1.2608 O   0  0  0  0  0  0  0  0  0  0  0  0
   -3.9215    0.5950    0.7901 C   0  0  0  0  0  0  0  0  0  0  0  0
   -4.3159    0.0367   -0.4327 C   0  0  0  0  0  0  0  0  0  0  0  0
   -5.6753   -0.0941   -0.7564 C   0  0  0  0  0  0  0  0  0  0  0  0
   -6.6540    0.3446    0.1371 C   0  0  0  0  0  0  0  0  0  0  0  0
   -8.0742    0.2302   -0.1520 C   0  0  0  0  0  0  0  0  0  0  0  0
   -8.9636    0.6737    0.7417 C   0  0  0  0  0  0  0  0  0  0  0  0
   -8.5636    1.2828    2.0230 C   0  0  0  0  0  0  0  0  0  0  0  0
   -9.4102    1.6816    2.8143 O   0  0  0  0  0  0  0  0  0  0  0  0
   -7.2023    1.3785    2.2746 O   0  0  0  0  0  0  0  0  0  0  0  0
   -6.2555    0.9133    1.3416 C   0  0  0  0  0  0  0  0  0  0  0  0
   -4.9099    1.0453    1.6726 C   0  0  0  0  0  0  0  0  0  0  0  0
   -3.3918   -0.3773   -1.3511 O   0  0  0  0  0  0  0  0  0  0  0  0
   -2.2898   -1.7539    2.2816 O   0  0  0  0  0  0  0  0  0  0  0  0
   -0.2480   -3.4456    0.8298 O   0  0  0  0  0  0  0  0  0  0  0  0
    0.3912   -1.5626   -1.1218 O   0  0  0  0  0  0  0  0  0  0  0  0
    2.8049   -0.4867   -2.0255 O   0  0  0  0  0  0  0  0  0  0  0  0
    5.1653   -1.3072   -2.5400 O   0  0  0  0  0  0  0  0  0  0  0  0
    5.3832   -1.2343    0.1691 O   0  0  0  0  0  0  0  0  0  0  0  0
    7.0165    2.9992    0.5661 H   0  0  0  0  0  0  0  0  0  0  0  0
    7.1390    2.3615   -1.0671 H   0  0  0  0  0  0  0  0  0  0  0  0
    8.0173    1.5636    0.2594 H   0  0  0  0  0  0  0  0  0  0  0  0
    5.8326    0.9620    1.3251 H   0  0  0  0  0  0  0  0  0  0  0  0
    6.9991   -0.4250   -0.7205 H   0  0  0  0  0  0  0  0  0  0  0  0
    5.7945    0.6479   -2.5492 H   0  0  0  0  0  0  0  0  0  0  0  0
    3.6685    1.2826   -2.5567 H   0  0  0  0  0  0  0  0  0  0  0  0
    2.7351    1.9472   -0.5246 H   0  0  0  0  0  0  0  0  0  0  0  0
    2.0898    0.0177    2.2782 H   0  0  0  0  0  0  0  0  0  0  0  0
    2.0363    1.6414    1.6271 H   0  0  0  0  0  0  0  0  0  0  0  0
    0.8054    0.7418   -0.4044 H   0  0  0  0  0  0  0  0  0  0  0  0
    1.7902   -1.7923    0.3310 H   0  0  0  0  0  0  0  0  0  0  0  0
    0.1518   -1.9843    2.1894 H   0  0  0  0  0  0  0  0  0  0  0  0
   -2.1952   -1.9733    0.2691 H   0  0  0  0  0  0  0  0  0  0  0  0
   -1.4803    0.2575   -0.3501 H   0  0  0  0  0  0  0  0  0  0  0  0
   -5.9742   -0.5334   -1.7038 H   0  0  0  0  0  0  0  0  0  0  0  0
   -8.3941   -0.2144   -1.0876 H   0  0  0  0  0  0  0  0  0  0  0  0
  -10.0307    0.6075    0.5676 H   0  0  0  0  0  0  0  0  0  0  0  0
   -4.6240    1.4875    2.6237 H   0  0  0  0  0  0  0  0  0  0  0  0
   -3.8448   -0.6880   -2.1525 H   0  0  0  0  0  0  0  0  0  0  0  0
   -2.1917   -2.7150    2.4140 H   0  0  0  0  0  0  0  0  0  0  0  0
   -0.2385   -3.4836   -0.1483 H   0  0  0  0  0  0  0  0  0  0  0  0
    1.1209   -1.1948   -1.6719 H   0  0  0  0  0  0  0  0  0  0  0  0
    3.2838   -1.1165   -2.6120 H   0  0  0  0  0  0  0  0  0  0  0  0
    5.2750   -1.9615   -1.8150 H   0  0  0  0  0  0  0  0  0  0  0  0
    4.5577   -0.9095    0.5917 H   0  0  0  0  0  0  0  0  0  0  0  0
  1  2  1  0
  2  3  1  0
  3  4  1  0
  4  5  1  0
  5  6  1  0
  6  7  1  0
  6  8  1  0
  8  9  1  0
  9 10  1  0
 10 11  1  0
 11 12  1  0
 12 13  1  0
 13 14  1  0
 14 15  1  0
 14 16  1  0
 16 17  1  0
 17 18  1  0
 18 19  2  0
 19 20  1  0
 20 21  1  0
 21 22  2  0
 22 23  1  0
 23 24  2  0
 23 25  1  0
 25 26  1  0
 26 27  1  0
 18 28  1  0
 13 29  1  0
 12 30  1  0
 11 31  1  0
  5 32  1  0
  4 33  1  0
  3 34  1  0
  7  2  1  0
 15 10  1  0
 27 17  2  0
 26 20  2  0
  1 35  1  0
  1 36  1  0
  1 37  1  0
  2 38  1  0
  3 39  1  0
  4 40  1  0
  5 41  1  0
  6 42  1  0
  9 43  1  0
  9 44  1  0
 10 45  1  0
 11 46  1  0
 12 47  1  0
 13 48  1  0
 14 49  1  0
 19 50  1  0
 21 51  1  0
 22 52  1  0
 27 53  1  0
 28 54  1  0
 29 55  1  0
 30 56  1  0
 31 57  1  0
 32 58  1  0
 33 59  1  0
 34 60  1  0
M  END
>  <Name>  (542) 
Isobaisseoside

>  <PubChem ID>  (542) 
101929805

>  <CDB ID>  (542) 
CDB0542

>  <Smiles>  (542) 
CC1C(C(C(C(O1)OCC2C(C(C(C(O2)OC3=C(C=C4C=CC(=O)OC4=C3)O)O)O)O)O)O)O

>  <Chemical class>  (542) 
6,7-Dioxygenated Coumarins

>  <Natural source>  (542) 
Eriostemon cymbiformis

>  <Molecular Formula>  (542) 
C21H26O13

>  <InChI-Key>  (542) 
PQTLOQWHUISKOP-UHFFFAOYSA-N

>  <Total Molweight>  (542) 
486.424

>  <cLogP>  (542) 
-2.0937

>  <cLogS>  (542) 
-1.871

>  <H-Acceptors>  (542) 
13

>  <H-Donors>  (542) 
7

>  <Rotatable Bonds>  (542) 
5

>  <Polar Surface Area>  (542) 
204.83

$$$$
CDB0543
     RDKit          3D

 25 26  0  0  0  0  0  0  0  0999 V2000
   -1.9702   -2.9391    0.7103 C   0  0  0  0  0  0  0  0  0  0  0  0
   -2.0978   -1.6958    0.0362 O   0  0  0  0  0  0  0  0  0  0  0  0
   -1.0157   -0.8495    0.0378 C   0  0  0  0  0  0  0  0  0  0  0  0
   -1.1915    0.3753   -0.6458 C   0  0  0  0  0  0  0  0  0  0  0  0
   -0.1424    1.2961   -0.6946 C   0  0  0  0  0  0  0  0  0  0  0  0
    1.0628    0.9900   -0.0665 C   0  0  0  0  0  0  0  0  0  0  0  0
    1.2547   -0.2096    0.6109 C   0  0  0  0  0  0  0  0  0  0  0  0
    0.2081   -1.1333    0.6621 C   0  0  0  0  0  0  0  0  0  0  0  0
    2.5395   -0.4628    1.2438 C   0  0  0  0  0  0  0  0  0  0  0  0
    3.5061    0.4566    1.1632 C   0  0  0  0  0  0  0  0  0  0  0  0
    3.3257    1.7340    0.4513 C   0  0  0  0  0  0  0  0  0  0  0  0
    4.2345    2.5542    0.3977 O   0  0  0  0  0  0  0  0  0  0  0  0
    2.0908    1.9516   -0.1441 O   0  0  0  0  0  0  0  0  0  0  0  0
   -2.4203    0.5694   -1.2271 O   0  0  0  0  0  0  0  0  0  0  0  0
   -2.6353    1.7890   -1.9234 C   0  0  0  0  0  0  0  0  0  0  0  0
   -1.1881   -3.5562    0.2561 H   0  0  0  0  0  0  0  0  0  0  0  0
   -2.9185   -3.4752    0.6059 H   0  0  0  0  0  0  0  0  0  0  0  0
   -1.7882   -2.7917    1.7798 H   0  0  0  0  0  0  0  0  0  0  0  0
   -0.2297    2.2475   -1.2063 H   0  0  0  0  0  0  0  0  0  0  0  0
    0.3626   -2.0673    1.1914 H   0  0  0  0  0  0  0  0  0  0  0  0
    2.6965   -1.3959    1.7737 H   0  0  0  0  0  0  0  0  0  0  0  0
    4.4766    0.3069    1.6204 H   0  0  0  0  0  0  0  0  0  0  0  0
   -1.9521    1.8839   -2.7739 H   0  0  0  0  0  0  0  0  0  0  0  0
   -3.6559    1.7735   -2.3176 H   0  0  0  0  0  0  0  0  0  0  0  0
   -2.5523    2.6483   -1.2499 H   0  0  0  0  0  0  0  0  0  0  0  0
  1  2  1  0
  2  3  1  0
  3  4  1  0
  4  5  2  0
  5  6  1  0
  6  7  2  0
  7  8  1  0
  7  9  1  0
  9 10  2  0
 10 11  1  0
 11 12  2  0
 11 13  1  0
  4 14  1  0
 14 15  1  0
  8  3  2  0
 13  6  1  0
  1 16  1  0
  1 17  1  0
  1 18  1  0
  5 19  1  0
  8 20  1  0
  9 21  1  0
 10 22  1  0
 15 23  1  0
 15 24  1  0
 15 25  1  0
M  END
>  <Name>  (543) 
Scoparone (Scoparin)

>  <PubChem ID>  (543) 
8417

>  <CDB ID>  (543) 
CDB0543

>  <Smiles>  (543) 
COC1=C(C=C2C(=C1)C=CC(=O)O2)OC

>  <Chemical class>  (543) 
6,7-Dioxygenated Coumarins

>  <Natural source>  (543) 
Artemisia scoparia

>  <Molecular Formula>  (543) 
C11H10O4

>  <InChI-Key>  (543) 
GUAFOGOEJLSQBT-UHFFFAOYSA-N

>  <Total Molweight>  (543) 
206.196

>  <cLogP>  (543) 
1.3574

>  <cLogS>  (543) 
-2.406

>  <H-Acceptors>  (543) 
4

>  <H-Donors>  (543) 
0

>  <Rotatable Bonds>  (543) 
2

>  <Polar Surface Area>  (543) 
44.76

$$$$
CDB0544
     RDKit          3D

 36 37  0  0  0  0  0  0  0  0999 V2000
   -4.5008    0.3430   -2.4492 C   0  0  0  0  0  0  0  0  0  0  0  0
   -3.6905    0.1820   -1.3876 C   0  0  0  0  0  0  0  0  0  0  0  0
   -3.3214   -1.1964   -0.9072 C   0  0  0  0  0  0  0  0  0  0  0  0
   -3.1429    1.3725   -0.6194 C   0  0  1  0  0  0  0  0  0  0  0  0
   -3.6834    1.3707    0.7028 O   0  0  0  0  0  0  0  0  0  0  0  0
   -1.6036    1.4905   -0.5739 C   0  0  0  0  0  0  0  0  0  0  0  0
   -1.0229    0.3908    0.1326 O   0  0  0  0  0  0  0  0  0  0  0  0
    0.3451    0.2867    0.1433 C   0  0  0  0  0  0  0  0  0  0  0  0
    0.8700   -0.9325    0.6280 C   0  0  0  0  0  0  0  0  0  0  0  0
   -0.0554   -1.8762    1.0027 O   0  0  0  0  0  0  0  0  0  0  0  0
    0.4201   -3.0509    1.6432 C   0  0  0  0  0  0  0  0  0  0  0  0
    2.2584   -1.1239    0.6825 C   0  0  0  0  0  0  0  0  0  0  0  0
    3.1246   -0.1097    0.2672 C   0  0  0  0  0  0  0  0  0  0  0  0
    4.5702   -0.2647    0.3075 C   0  0  0  0  0  0  0  0  0  0  0  0
    5.3520    0.7393   -0.1011 C   0  0  0  0  0  0  0  0  0  0  0  0
    4.8068    2.0147   -0.5984 C   0  0  0  0  0  0  0  0  0  0  0  0
    5.5542    2.9130   -0.9672 O   0  0  0  0  0  0  0  0  0  0  0  0
    3.4245    2.1380   -0.6264 O   0  0  0  0  0  0  0  0  0  0  0  0
    2.5886    1.0863   -0.1994 C   0  0  0  0  0  0  0  0  0  0  0  0
    1.2138    1.3003   -0.2659 C   0  0  0  0  0  0  0  0  0  0  0  0
   -4.8979   -0.5090   -2.9941 H   0  0  0  0  0  0  0  0  0  0  0  0
   -4.7894    1.3270   -2.8070 H   0  0  0  0  0  0  0  0  0  0  0  0
   -3.4583   -1.2829    0.1752 H   0  0  0  0  0  0  0  0  0  0  0  0
   -3.9443   -1.9680   -1.3731 H   0  0  0  0  0  0  0  0  0  0  0  0
   -2.2810   -1.4263   -1.1540 H   0  0  0  0  0  0  0  0  0  0  0  0
   -3.5116    2.2945   -1.0869 H   0  0  0  0  0  0  0  0  0  0  0  0
   -4.5745    0.9874    0.6465 H   0  0  0  0  0  0  0  0  0  0  0  0
   -1.2163    1.5297   -1.5996 H   0  0  0  0  0  0  0  0  0  0  0  0
   -1.3506    2.4155   -0.0415 H   0  0  0  0  0  0  0  0  0  0  0  0
   -0.4495   -3.6433    1.9437 H   0  0  0  0  0  0  0  0  0  0  0  0
    0.9868   -2.8092    2.5486 H   0  0  0  0  0  0  0  0  0  0  0  0
    1.0144   -3.6598    0.9544 H   0  0  0  0  0  0  0  0  0  0  0  0
    2.6803   -2.0570    1.0401 H   0  0  0  0  0  0  0  0  0  0  0  0
    4.9953   -1.1942    0.6698 H   0  0  0  0  0  0  0  0  0  0  0  0
    6.4325    0.6644   -0.0867 H   0  0  0  0  0  0  0  0  0  0  0  0
    0.8567    2.2577   -0.6265 H   0  0  0  0  0  0  0  0  0  0  0  0
  1  2  2  0
  2  3  1  0
  2  4  1  0
  4  5  1  0
  4  6  1  0
  6  7  1  0
  7  8  1  0
  8  9  1  0
  9 10  1  0
 10 11  1  0
  9 12  2  0
 12 13  1  0
 13 14  1  0
 14 15  2  0
 15 16  1  0
 16 17  2  0
 16 18  1  0
 18 19  1  0
 19 20  1  0
 20  8  2  0
 19 13  2  0
  1 21  1  0
  1 22  1  0
  3 23  1  0
  3 24  1  0
  3 25  1  0
  4 26  1  6
  5 27  1  0
  6 28  1  0
  6 29  1  0
 11 30  1  0
 11 31  1  0
 11 32  1  0
 12 33  1  0
 14 34  1  0
 15 35  1  0
 20 36  1  0
M  END
>  <Name>  (544) 
Virgatenol

>  <PubChem ID>  (544) 
10636169

>  <CDB ID>  (544) 
CDB0544

>  <Smiles>  (544) 
C=C(C)[C@@H](O)COC1=C(OC)C=C2C=CC(=O)OC2=C1

>  <Chemical class>  (544) 
6,7-Dioxygenated Coumarins

>  <Natural source>  (544) 
Pterocaulon virgatum

>  <Molecular Formula>  (544) 
C15H16O5

>  <InChI-Key>  (544) 
KFAKUXNOLDEZAV-NSHDSACASA-N

>  <Total Molweight>  (544) 
276.287

>  <cLogP>  (544) 
2.0716

>  <cLogS>  (544) 
-2.91

>  <H-Acceptors>  (544) 
5

>  <H-Donors>  (544) 
1

>  <Rotatable Bonds>  (544) 
5

>  <Polar Surface Area>  (544) 
64.99

$$$$
CDB0545
     RDKit          3D

 39 40  0  0  0  0  0  0  0  0999 V2000
    1.8442   -3.7032   -1.3604 C   0  0  0  0  0  0  0  0  0  0  0  0
    1.0363   -2.6559   -0.8416 O   0  0  0  0  0  0  0  0  0  0  0  0
    1.6560   -1.4765   -0.5058 C   0  0  0  0  0  0  0  0  0  0  0  0
    0.8230   -0.4886    0.0659 C   0  0  0  0  0  0  0  0  0  0  0  0
   -0.4928   -0.8391    0.2329 O   0  0  0  0  0  0  0  0  0  0  0  0
   -1.4212    0.1954    0.5836 C   0  0  0  0  0  0  0  0  0  0  0  0
   -2.8204   -0.4305    0.5299 C   0  0  2  0  0  0  0  0  0  0  0  0
   -3.0722   -0.9065   -0.8114 O   0  0  0  0  0  0  0  0  0  0  0  0
   -3.9787    0.5162    0.9293 C   0  0  0  0  0  0  0  0  0  0  0  0
   -4.0717    1.7633    0.0451 C   0  0  0  0  0  0  0  0  0  0  0  0
   -3.9104    0.9169    2.4025 C   0  0  0  0  0  0  0  0  0  0  0  0
   -5.2057   -0.2130    0.7477 O   0  0  0  0  0  0  0  0  0  0  0  0
    1.3628    0.7439    0.4371 C   0  0  0  0  0  0  0  0  0  0  0  0
    2.7195    0.9815    0.2282 C   0  0  0  0  0  0  0  0  0  0  0  0
    3.2185    2.2407    0.6183 O   0  0  0  0  0  0  0  0  0  0  0  0
    4.5569    2.5684    0.4488 C   0  0  0  0  0  0  0  0  0  0  0  0
    5.0135    3.6562    0.7799 O   0  0  0  0  0  0  0  0  0  0  0  0
    5.4227    1.5404   -0.1550 C   0  0  0  0  0  0  0  0  0  0  0  0
    4.9618    0.3425   -0.5280 C   0  0  0  0  0  0  0  0  0  0  0  0
    3.5553    0.0244   -0.3384 C   0  0  0  0  0  0  0  0  0  0  0  0
    3.0183   -1.2117   -0.7068 C   0  0  0  0  0  0  0  0  0  0  0  0
    1.1977   -4.5683   -1.5364 H   0  0  0  0  0  0  0  0  0  0  0  0
    2.2879   -3.4192   -2.3202 H   0  0  0  0  0  0  0  0  0  0  0  0
    2.6132   -4.0036   -0.6410 H   0  0  0  0  0  0  0  0  0  0  0  0
   -1.3446    1.0061   -0.1497 H   0  0  0  0  0  0  0  0  0  0  0  0
   -1.2026    0.5579    1.5928 H   0  0  0  0  0  0  0  0  0  0  0  0
   -2.8483   -1.3292    1.1590 H   0  0  0  0  0  0  0  0  0  0  0  0
   -2.2816   -1.4320   -1.0507 H   0  0  0  0  0  0  0  0  0  0  0  0
   -4.9715    2.3413    0.2871 H   0  0  0  0  0  0  0  0  0  0  0  0
   -3.2045    2.4190    0.1684 H   0  0  0  0  0  0  0  0  0  0  0  0
   -4.1587    1.4949   -1.0135 H   0  0  0  0  0  0  0  0  0  0  0  0
   -4.8120    1.4661    2.6981 H   0  0  0  0  0  0  0  0  0  0  0  0
   -3.8670    0.0300    3.0449 H   0  0  0  0  0  0  0  0  0  0  0  0
   -3.0420    1.5462    2.6191 H   0  0  0  0  0  0  0  0  0  0  0  0
   -5.1045   -0.6654   -0.1154 H   0  0  0  0  0  0  0  0  0  0  0  0
    0.7662    1.5264    0.8913 H   0  0  0  0  0  0  0  0  0  0  0  0
    6.4629    1.8163   -0.2789 H   0  0  0  0  0  0  0  0  0  0  0  0
    5.6198   -0.3976   -0.9702 H   0  0  0  0  0  0  0  0  0  0  0  0
    3.6737   -1.9537   -1.1502 H   0  0  0  0  0  0  0  0  0  0  0  0
  1  2  1  0
  2  3  1  0
  3  4  1  0
  4  5  1  0
  5  6  1  0
  6  7  1  0
  7  8  1  0
  7  9  1  0
  9 10  1  0
  9 11  1  0
  9 12  1  0
  4 13  2  0
 13 14  1  0
 14 15  1  0
 15 16  1  0
 16 17  2  0
 16 18  1  0
 18 19  2  0
 19 20  1  0
 20 21  1  0
 21  3  2  0
 20 14  2  0
  1 22  1  0
  1 23  1  0
  1 24  1  0
  6 25  1  0
  6 26  1  0
  7 27  1  1
  8 28  1  0
 10 29  1  0
 10 30  1  0
 10 31  1  0
 11 32  1  0
 11 33  1  0
 11 34  1  0
 12 35  1  0
 13 36  1  0
 18 37  1  0
 19 38  1  0
 21 39  1  0
M  END
>  <Name>  (545) 
Obtusinin

>  <PubChem ID>  (545) 
3604942

>  <CDB ID>  (545) 
CDB0545

>  <Smiles>  (545) 
COC1=C(OC[C@H](O)C(C)(C)O)C=C2OC(=O)C=CC2=C1

>  <Chemical class>  (545) 
6,7-Dioxygenated Coumarins

>  <Natural source>  (545) 
Conyza obscura, Haplophyllum obtusifolium

>  <Molecular Formula>  (545) 
C15H18O6

>  <InChI-Key>  (545) 
WXTWDABXJFQNRI-ZDUSSCGKSA-N

>  <Total Molweight>  (545) 
294.302

>  <cLogP>  (545) 
1.0095

>  <cLogS>  (545) 
-2.557

>  <H-Acceptors>  (545) 
6

>  <H-Donors>  (545) 
2

>  <Rotatable Bonds>  (545) 
5

>  <Polar Surface Area>  (545) 
85.22

$$$$
CDB0546
     RDKit          3D

 47 48  0  0  0  0  0  0  0  0999 V2000
    3.8667    1.2911   -1.4857 C   0  0  0  0  0  0  0  0  0  0  0  0
    2.6171    0.4557   -1.3779 C   0  0  0  0  0  0  0  0  0  0  0  0
    1.4049    1.0467   -1.3427 C   0  0  0  0  0  0  0  0  0  0  0  0
    0.0590    0.3860   -1.2448 C   0  0  0  0  0  0  0  0  0  0  0  0
   -0.6096    0.9687   -0.1182 O   0  0  0  0  0  0  0  0  0  0  0  0
   -1.9526    0.6991   -0.1280 C   0  0  0  0  0  0  0  0  0  0  0  0
   -2.4871   -0.5891    0.0138 C   0  0  0  0  0  0  0  0  0  0  0  0
   -3.8703   -0.7914   -0.0382 C   0  0  0  0  0  0  0  0  0  0  0  0
   -4.7278    0.3017   -0.1716 C   0  0  0  0  0  0  0  0  0  0  0  0
   -6.1726    0.1480   -0.2157 C   0  0  0  0  0  0  0  0  0  0  0  0
   -6.9457    1.2316   -0.3356 C   0  0  0  0  0  0  0  0  0  0  0  0
   -6.3917    2.5941   -0.4263 C   0  0  0  0  0  0  0  0  0  0  0  0
   -7.1330    3.5640   -0.5355 O   0  0  0  0  0  0  0  0  0  0  0  0
   -5.0095    2.7153   -0.3834 O   0  0  0  0  0  0  0  0  0  0  0  0
   -4.1817    1.5818   -0.2583 C   0  0  0  0  0  0  0  0  0  0  0  0
   -2.8056    1.7961   -0.2327 C   0  0  0  0  0  0  0  0  0  0  0  0
   -1.7058   -1.7049    0.1617 O   0  0  0  0  0  0  0  0  0  0  0  0
   -1.1412   -1.7533    1.4758 C   0  0  0  0  0  0  0  0  0  0  0  0
    2.8321   -1.0460   -1.3625 C   0  0  0  0  0  0  0  0  0  0  0  0
    2.8140   -1.6831    0.0382 C   0  0  0  0  0  0  0  0  0  0  0  0
    3.9795   -1.2663    0.8979 C   0  0  0  0  0  0  0  0  0  0  0  0
    3.9491   -0.8132    2.1647 C   0  0  0  0  0  0  0  0  0  0  0  0
    5.1734   -0.3623    2.8998 C   0  0  0  0  0  0  0  0  0  0  0  0
    2.6894   -0.7273    2.9558 C   0  0  0  0  0  0  0  0  0  0  0  0
    1.8142   -1.5837    2.9377 O   0  0  0  0  0  0  0  0  0  0  0  0
    4.5176    1.1302   -0.6216 H   0  0  0  0  0  0  0  0  0  0  0  0
    3.6455    2.3627   -1.5345 H   0  0  0  0  0  0  0  0  0  0  0  0
    4.4208    1.0286   -2.3928 H   0  0  0  0  0  0  0  0  0  0  0  0
    1.3522    2.1340   -1.3801 H   0  0  0  0  0  0  0  0  0  0  0  0
    0.1515   -0.6941   -1.1144 H   0  0  0  0  0  0  0  0  0  0  0  0
   -0.4957    0.5902   -2.1695 H   0  0  0  0  0  0  0  0  0  0  0  0
   -4.2612   -1.8023    0.0410 H   0  0  0  0  0  0  0  0  0  0  0  0
   -6.6027   -0.8454   -0.1502 H   0  0  0  0  0  0  0  0  0  0  0  0
   -8.0260    1.1606   -0.3719 H   0  0  0  0  0  0  0  0  0  0  0  0
   -2.4026    2.8012   -0.3074 H   0  0  0  0  0  0  0  0  0  0  0  0
   -0.5658   -2.6802    1.5561 H   0  0  0  0  0  0  0  0  0  0  0  0
   -1.9286   -1.7745    2.2374 H   0  0  0  0  0  0  0  0  0  0  0  0
   -0.4626   -0.9151    1.6564 H   0  0  0  0  0  0  0  0  0  0  0  0
    3.7770   -1.2862   -1.8677 H   0  0  0  0  0  0  0  0  0  0  0  0
    2.0597   -1.5286   -1.9749 H   0  0  0  0  0  0  0  0  0  0  0  0
    1.8545   -1.4614    0.5118 H   0  0  0  0  0  0  0  0  0  0  0  0
    2.8624   -2.7725   -0.0811 H   0  0  0  0  0  0  0  0  0  0  0  0
    4.9478   -1.3345    0.4035 H   0  0  0  0  0  0  0  0  0  0  0  0
    5.3077   -0.9495    3.8143 H   0  0  0  0  0  0  0  0  0  0  0  0
    6.0801   -0.4757    2.2961 H   0  0  0  0  0  0  0  0  0  0  0  0
    5.0872    0.6941    3.1749 H   0  0  0  0  0  0  0  0  0  0  0  0
    2.6160    0.1589    3.6085 H   0  0  0  0  0  0  0  0  0  0  0  0
  1  2  1  0
  2  3  2  3
  3  4  1  0
  4  5  1  0
  5  6  1  0
  6  7  1  0
  7  8  2  0
  8  9  1  0
  9 10  1  0
 10 11  2  0
 11 12  1  0
 12 13  2  0
 12 14  1  0
 14 15  1  0
 15 16  1  0
  7 17  1  0
 17 18  1  0
  2 19  1  0
 19 20  1  0
 20 21  1  0
 21 22  2  3
 22 23  1  0
 22 24  1  0
 24 25  2  0
 16  6  2  0
 15  9  2  0
  1 26  1  0
  1 27  1  0
  1 28  1  0
  3 29  1  0
  4 30  1  0
  4 31  1  0
  8 32  1  0
 10 33  1  0
 11 34  1  0
 16 35  1  0
 18 36  1  0
 18 37  1  0
 18 38  1  0
 19 39  1  0
 19 40  1  0
 20 41  1  0
 20 42  1  0
 21 43  1  0
 23 44  1  0
 23 45  1  0
 23 46  1  0
 24 47  1  0
M  END
>  <Name>  (546) 
Artekeiskeanin A

>  <PubChem ID>  (546) 
24823845

>  <CDB ID>  (546) 
CDB0546

>  <Smiles>  (546) 
CC(=CCOC1=C(C=C2C=CC(=O)OC2=C1)OC)CCC=C(C)C=O

>  <Chemical class>  (546) 
6,7-Dioxygenated Coumarins

>  <Natural source>  (546) 
Artemisia keiskeana

>  <Molecular Formula>  (546) 
C20H22O5

>  <InChI-Key>  (546) 
SSKYVKAMMVPTNN-UHFFFAOYSA-N

>  <Total Molweight>  (546) 
342.39

>  <cLogP>  (546) 
4.0595

>  <cLogS>  (546) 
-3.826

>  <H-Acceptors>  (546) 
5

>  <H-Donors>  (546) 
0

>  <Rotatable Bonds>  (546) 
8

>  <Polar Surface Area>  (546) 
61.83

$$$$
CDB0547
     RDKit          3D

 50 51  0  0  0  0  0  0  0  0999 V2000
    1.2530   -2.7081    0.0359 C   0  0  0  0  0  0  0  0  0  0  0  0
    1.4822   -1.2617   -0.3122 C   0  0  0  0  0  0  0  0  0  0  0  0
    0.5584   -0.2845   -0.2041 C   0  0  0  0  0  0  0  0  0  0  0  0
   -0.8678   -0.3876    0.2558 C   0  0  0  0  0  0  0  0  0  0  0  0
   -1.6639    0.3457   -0.6739 O   0  0  0  0  0  0  0  0  0  0  0  0
   -3.0123    0.4403   -0.4329 C   0  0  0  0  0  0  0  0  0  0  0  0
   -3.7549    1.1968   -1.3681 C   0  0  0  0  0  0  0  0  0  0  0  0
   -5.1398    1.3481   -1.2050 C   0  0  0  0  0  0  0  0  0  0  0  0
   -5.7894    0.7519   -0.1217 C   0  0  0  0  0  0  0  0  0  0  0  0
   -7.2230    0.8821    0.0862 C   0  0  0  0  0  0  0  0  0  0  0  0
   -7.7922    0.2904    1.1408 C   0  0  0  0  0  0  0  0  0  0  0  0
   -7.0210   -0.4993    2.1167 C   0  0  0  0  0  0  0  0  0  0  0  0
   -7.5757   -1.0276    3.0730 O   0  0  0  0  0  0  0  0  0  0  0  0
   -5.6548   -0.6088    1.8957 O   0  0  0  0  0  0  0  0  0  0  0  0
   -5.0421    0.0105    0.7874 C   0  0  0  0  0  0  0  0  0  0  0  0
   -3.6656   -0.1543    0.6488 C   0  0  0  0  0  0  0  0  0  0  0  0
   -3.0325    1.7491   -2.3976 O   0  0  0  0  0  0  0  0  0  0  0  0
   -3.7413    2.4680   -3.3964 C   0  0  0  0  0  0  0  0  0  0  0  0
    2.8644   -0.9414   -0.8533 C   0  0  0  0  0  0  0  0  0  0  0  0
    3.9113   -0.8491    0.2562 C   0  0  0  0  0  0  0  0  0  0  0  0
    5.2733   -0.4524   -0.2862 C   0  0  0  0  0  0  0  0  0  0  0  0
    5.5387   -0.4919   -1.4923 O   0  0  0  0  0  0  0  0  0  0  0  0
    6.3472    0.0205    0.7158 C   0  0  0  0  0  0  0  0  0  0  0  0
    6.4642   -0.9112    1.9160 C   0  0  0  0  0  0  0  0  0  0  0  0
    6.0606    1.4555    1.1455 C   0  0  0  0  0  0  0  0  0  0  0  0
    7.6197    0.0162    0.0566 O   0  0  0  0  0  0  0  0  0  0  0  0
    1.3607   -3.3310   -0.8581 H   0  0  0  0  0  0  0  0  0  0  0  0
    1.9838   -3.0429    0.7787 H   0  0  0  0  0  0  0  0  0  0  0  0
    0.2643   -2.9028    0.4564 H   0  0  0  0  0  0  0  0  0  0  0  0
    0.8413    0.7285   -0.4912 H   0  0  0  0  0  0  0  0  0  0  0  0
   -1.2110   -1.4247    0.2888 H   0  0  0  0  0  0  0  0  0  0  0  0
   -0.9401    0.0680    1.2502 H   0  0  0  0  0  0  0  0  0  0  0  0
   -5.7260    1.9277   -1.9100 H   0  0  0  0  0  0  0  0  0  0  0  0
   -7.8122    1.4584   -0.6186 H   0  0  0  0  0  0  0  0  0  0  0  0
   -8.8561    0.3630    1.3313 H   0  0  0  0  0  0  0  0  0  0  0  0
   -3.1420   -0.7452    1.3913 H   0  0  0  0  0  0  0  0  0  0  0  0
   -4.4689    1.8267   -3.9046 H   0  0  0  0  0  0  0  0  0  0  0  0
   -3.0167    2.8052   -4.1438 H   0  0  0  0  0  0  0  0  0  0  0  0
   -4.2220    3.3569   -2.9752 H   0  0  0  0  0  0  0  0  0  0  0  0
    3.1509   -1.7057   -1.5871 H   0  0  0  0  0  0  0  0  0  0  0  0
    2.8440    0.0046   -1.4110 H   0  0  0  0  0  0  0  0  0  0  0  0
    4.0208   -1.8138    0.7622 H   0  0  0  0  0  0  0  0  0  0  0  0
    3.5978   -0.1025    0.9933 H   0  0  0  0  0  0  0  0  0  0  0  0
    7.3176   -0.6339    2.5453 H   0  0  0  0  0  0  0  0  0  0  0  0
    6.6372   -1.9432    1.5894 H   0  0  0  0  0  0  0  0  0  0  0  0
    5.5623   -0.8997    2.5363 H   0  0  0  0  0  0  0  0  0  0  0  0
    5.9819    2.1137    0.2723 H   0  0  0  0  0  0  0  0  0  0  0  0
    6.8761    1.8496    1.7625 H   0  0  0  0  0  0  0  0  0  0  0  0
    5.1278    1.5366    1.7122 H   0  0  0  0  0  0  0  0  0  0  0  0
    7.4316    0.1089   -0.9008 H   0  0  0  0  0  0  0  0  0  0  0  0
  1  2  1  0
  2  3  2  3
  3  4  1  0
  4  5  1  0
  5  6  1  0
  6  7  1  0
  7  8  2  0
  8  9  1  0
  9 10  1  0
 10 11  2  0
 11 12  1  0
 12 13  2  0
 12 14  1  0
 14 15  1  0
 15 16  1  0
  7 17  1  0
 17 18  1  0
  2 19  1  0
 19 20  1  0
 20 21  1  0
 21 22  2  0
 21 23  1  0
 23 24  1  0
 23 25  1  0
 23 26  1  0
 16  6  2  0
 15  9  2  0
  1 27  1  0
  1 28  1  0
  1 29  1  0
  3 30  1  0
  4 31  1  0
  4 32  1  0
  8 33  1  0
 10 34  1  0
 11 35  1  0
 16 36  1  0
 18 37  1  0
 18 38  1  0
 18 39  1  0
 19 40  1  0
 19 41  1  0
 20 42  1  0
 20 43  1  0
 24 44  1  0
 24 45  1  0
 24 46  1  0
 25 47  1  0
 25 48  1  0
 25 49  1  0
 26 50  1  0
M  END
>  <Name>  (547) 
Pedicellone

>  <PubChem ID>  (547) 
90472499

>  <CDB ID>  (547) 
CDB0547

>  <Smiles>  (547) 
CC(=CCOC1=C(C=C2C=CC(=O)OC2=C1)OC)CCC(=O)C(C)(C)O

>  <Chemical class>  (547) 
6,7-Dioxygenated Coumarins

>  <Natural source>  (547) 
Haplophyllum pedicellatum

>  <Molecular Formula>  (547) 
C20H24O6

>  <InChI-Key>  (547) 
YFNJPFSETJLTAH-UHFFFAOYSA-N

>  <Total Molweight>  (547) 
360.405

>  <cLogP>  (547) 
3.1501

>  <cLogS>  (547) 
-3.584

>  <H-Acceptors>  (547) 
6

>  <H-Donors>  (547) 
1

>  <Rotatable Bonds>  (547) 
8

>  <Polar Surface Area>  (547) 
82.06

$$$$
CDB0548
     RDKit          3D

 43 45  0  0  0  0  0  0  0  0999 V2000
    1.0579   -0.6124   -3.3781 C   0  0  0  0  0  0  0  0  0  0  0  0
    0.5662   -0.3332   -2.0710 O   0  0  0  0  0  0  0  0  0  0  0  0
    1.4852    0.1052   -1.1535 C   0  0  0  0  0  0  0  0  0  0  0  0
    0.9802    0.8060   -0.0460 C   0  0  0  0  0  0  0  0  0  0  0  0
    1.8327    1.3198    0.9312 C   0  0  0  0  0  0  0  0  0  0  0  0
    3.1971    1.0820    0.8165 C   0  0  0  0  0  0  0  0  0  0  0  0
    3.7252    0.3585   -0.2514 C   0  0  0  0  0  0  0  0  0  0  0  0
    2.8631   -0.1313   -1.2399 C   0  0  0  0  0  0  0  0  0  0  0  0
    5.1618    0.1370   -0.3060 C   0  0  0  0  0  0  0  0  0  0  0  0
    5.9419    0.6333    0.6591 C   0  0  0  0  0  0  0  0  0  0  0  0
    5.4052    1.4065    1.7930 C   0  0  0  0  0  0  0  0  0  0  0  0
    6.1533    1.8476    2.6576 O   0  0  0  0  0  0  0  0  0  0  0  0
    4.0314    1.6017    1.8253 O   0  0  0  0  0  0  0  0  0  0  0  0
   -0.3615    1.0769    0.0444 O   0  0  0  0  0  0  0  0  0  0  0  0
   -1.0179    0.1699    0.9481 C   0  0  0  0  0  0  0  0  0  0  0  0
   -2.2196    0.9091    1.5848 C   0  0  0  0  0  0  0  0  0  0  0  0
   -3.4040   -0.0474    1.7222 C   0  0  0  0  0  0  0  0  0  0  0  0
   -3.8183   -0.5942    0.3480 C   0  0  0  0  0  0  0  0  0  0  0  0
   -2.5859   -0.8502   -0.5361 C   0  0  0  0  0  0  0  0  0  0  0  0
   -1.4172   -1.0375    0.2728 O   0  0  0  0  0  0  0  0  0  0  0  0
   -2.7629   -2.1198   -1.3759 C   0  0  0  0  0  0  0  0  0  0  0  0
   -1.6727   -2.2639   -2.2848 O   0  0  0  0  0  0  0  0  0  0  0  0
   -4.6826    0.3765   -0.2718 O   0  0  0  0  0  0  0  0  0  0  0  0
   -4.5032    0.6474    2.3354 O   0  0  0  0  0  0  0  0  0  0  0  0
   -1.8768    1.4250    2.8834 O   0  0  0  0  0  0  0  0  0  0  0  0
    1.6106   -1.5570   -3.3888 H   0  0  0  0  0  0  0  0  0  0  0  0
    0.1959   -0.7229   -4.0430 H   0  0  0  0  0  0  0  0  0  0  0  0
    1.6718    0.2093   -3.7625 H   0  0  0  0  0  0  0  0  0  0  0  0
    1.4395    1.8954    1.7638 H   0  0  0  0  0  0  0  0  0  0  0  0
    3.2788   -0.7015   -2.0643 H   0  0  0  0  0  0  0  0  0  0  0  0
    5.5820   -0.4286   -1.1302 H   0  0  0  0  0  0  0  0  0  0  0  0
    7.0158    0.4910    0.6553 H   0  0  0  0  0  0  0  0  0  0  0  0
   -0.3348   -0.1369    1.7516 H   0  0  0  0  0  0  0  0  0  0  0  0
   -2.5033    1.7835    0.9865 H   0  0  0  0  0  0  0  0  0  0  0  0
   -3.1322   -0.8681    2.3970 H   0  0  0  0  0  0  0  0  0  0  0  0
   -4.4210   -1.4976    0.4958 H   0  0  0  0  0  0  0  0  0  0  0  0
   -2.4077   -0.0114   -1.2221 H   0  0  0  0  0  0  0  0  0  0  0  0
   -2.7775   -3.0120   -0.7414 H   0  0  0  0  0  0  0  0  0  0  0  0
   -3.6860   -2.0846   -1.9621 H   0  0  0  0  0  0  0  0  0  0  0  0
   -0.8803   -1.9307   -1.8124 H   0  0  0  0  0  0  0  0  0  0  0  0
   -4.9834    0.0098   -1.1239 H   0  0  0  0  0  0  0  0  0  0  0  0
   -5.0132    1.0236    1.5858 H   0  0  0  0  0  0  0  0  0  0  0  0
   -2.7339    1.6260    3.3122 H   0  0  0  0  0  0  0  0  0  0  0  0
  1  2  1  0
  2  3  1  0
  3  4  1  0
  4  5  2  0
  5  6  1  0
  6  7  2  0
  7  8  1  0
  7  9  1  0
  9 10  2  0
 10 11  1  0
 11 12  2  0
 11 13  1  0
  4 14  1  0
 14 15  1  0
 15 16  1  0
 16 17  1  0
 17 18  1  0
 18 19  1  0
 19 20  1  0
 19 21  1  0
 21 22  1  0
 18 23  1  0
 17 24  1  0
 16 25  1  0
  8  3  2  0
 13  6  1  0
 20 15  1  0
  1 26  1  0
  1 27  1  0
  1 28  1  0
  5 29  1  0
  8 30  1  0
  9 31  1  0
 10 32  1  0
 15 33  1  0
 16 34  1  0
 17 35  1  0
 18 36  1  0
 19 37  1  0
 21 38  1  0
 21 39  1  0
 22 40  1  0
 23 41  1  0
 24 42  1  0
 25 43  1  0
M  END
>  <Name>  (548) 
Scopolin (Murrayin)

>  <PubChem ID>  (548) 
439514

>  <CDB ID>  (548) 
CDB0548

>  <Smiles>  (548) 
COC1=C(C=C2C(=C1)C=CC(=O)O2)OC3C(C(C(C(O3)CO)O)O)O

>  <Chemical class>  (548) 
6,7-Dioxygenated Coumarins

>  <Natural source>  (548) 
Scopolia japonica

>  <Molecular Formula>  (548) 
C16H18O9

>  <InChI-Key>  (548) 
SGTCGCCQZOUMJJ-UHFFFAOYSA-N

>  <Total Molweight>  (548) 
354.31

>  <cLogP>  (548) 
-0.9076

>  <cLogS>  (548) 
-1.978

>  <H-Acceptors>  (548) 
9

>  <H-Donors>  (548) 
4

>  <Rotatable Bonds>  (548) 
4

>  <Polar Surface Area>  (548) 
134.91

$$$$
CDB0549
     RDKit          3D

 60 63  0  0  0  0  0  0  0  0999 V2000
   -3.0942    0.6817   -3.1650 C   0  0  0  0  0  0  0  0  0  0  0  0
   -2.7599    0.3299   -1.8302 O   0  0  0  0  0  0  0  0  0  0  0  0
   -3.7773    0.2212   -0.9218 C   0  0  0  0  0  0  0  0  0  0  0  0
   -3.4014    0.0648    0.4258 C   0  0  0  0  0  0  0  0  0  0  0  0
   -4.3663    0.0084    1.4317 C   0  0  0  0  0  0  0  0  0  0  0  0
   -5.7100    0.0555    1.0803 C   0  0  0  0  0  0  0  0  0  0  0  0
   -6.1122    0.1739   -0.2472 C   0  0  0  0  0  0  0  0  0  0  0  0
   -5.1398    0.2595   -1.2501 C   0  0  0  0  0  0  0  0  0  0  0  0
   -7.5347    0.2127   -0.5484 C   0  0  0  0  0  0  0  0  0  0  0  0
   -8.4212    0.1374    0.4490 C   0  0  0  0  0  0  0  0  0  0  0  0
   -8.0167    0.0159    1.8608 C   0  0  0  0  0  0  0  0  0  0  0  0
   -8.8590   -0.0485    2.7485 O   0  0  0  0  0  0  0  0  0  0  0  0
   -6.6541   -0.0204    2.1225 O   0  0  0  0  0  0  0  0  0  0  0  0
   -2.0970    0.0479    0.8501 O   0  0  0  0  0  0  0  0  0  0  0  0
   -1.3225   -1.0417    0.3089 C   0  0  0  0  0  0  0  0  0  0  0  0
   -0.8302   -1.9188    1.4792 C   0  0  0  0  0  0  0  0  0  0  0  0
    0.0196   -1.0739    2.4410 C   0  0  0  0  0  0  0  0  0  0  0  0
    0.9462   -0.0930    1.6983 C   0  0  0  0  0  0  0  0  0  0  0  0
    1.0421   -0.4483    0.1997 C   0  0  0  0  0  0  0  0  0  0  0  0
   -0.2274   -0.5307   -0.4639 O   0  0  0  0  0  0  0  0  0  0  0  0
    1.9172    0.5497   -0.5751 C   0  0  0  0  0  0  0  0  0  0  0  0
    3.2678    0.5442   -0.1034 O   0  0  0  0  0  0  0  0  0  0  0  0
    4.0949   -0.3904   -0.7924 C   0  0  0  0  0  0  0  0  0  0  0  0
    5.4573   -0.4747   -0.0870 C   0  0  0  0  0  0  0  0  0  0  0  0
    6.2778    0.5736   -0.8303 C   0  0  0  0  0  0  0  0  0  0  0  0
    5.6942    0.4994   -2.2371 C   0  0  0  0  0  0  0  0  0  0  0  0
    4.3352    0.0614   -2.1339 O   0  0  0  0  0  0  0  0  0  0  0  0
    6.1374    1.9780   -0.2297 C   0  0  0  0  0  0  0  0  0  0  0  0
    6.7524    2.0038    1.0621 O   0  0  0  0  0  0  0  0  0  0  0  0
    7.6772    0.2311   -0.8149 O   0  0  0  0  0  0  0  0  0  0  0  0
    6.0586   -1.7703   -0.2917 O   0  0  0  0  0  0  0  0  0  0  0  0
    0.4619    1.2458    1.8780 O   0  0  0  0  0  0  0  0  0  0  0  0
   -0.8452   -0.3549    3.3451 O   0  0  0  0  0  0  0  0  0  0  0  0
   -1.9056   -2.5357    2.1976 O   0  0  0  0  0  0  0  0  0  0  0  0
   -3.6601   -0.1197   -3.6508 H   0  0  0  0  0  0  0  0  0  0  0  0
   -2.1604    0.8127   -3.7202 H   0  0  0  0  0  0  0  0  0  0  0  0
   -3.6399    1.6303   -3.2020 H   0  0  0  0  0  0  0  0  0  0  0  0
   -4.0758   -0.0781    2.4737 H   0  0  0  0  0  0  0  0  0  0  0  0
   -5.4626    0.3591   -2.2812 H   0  0  0  0  0  0  0  0  0  0  0  0
   -7.8580    0.3025   -1.5796 H   0  0  0  0  0  0  0  0  0  0  0  0
   -9.4888    0.1629    0.2675 H   0  0  0  0  0  0  0  0  0  0  0  0
   -1.9285   -1.6721   -0.3543 H   0  0  0  0  0  0  0  0  0  0  0  0
   -0.2122   -2.7274    1.0709 H   0  0  0  0  0  0  0  0  0  0  0  0
    0.6126   -1.7552    3.0618 H   0  0  0  0  0  0  0  0  0  0  0  0
    1.9454   -0.1275    2.1483 H   0  0  0  0  0  0  0  0  0  0  0  0
    1.5056   -1.4396    0.1203 H   0  0  0  0  0  0  0  0  0  0  0  0
    1.5271    1.5657   -0.4473 H   0  0  0  0  0  0  0  0  0  0  0  0
    1.8706    0.3518   -1.6533 H   0  0  0  0  0  0  0  0  0  0  0  0
    3.6133   -1.3735   -0.8334 H   0  0  0  0  0  0  0  0  0  0  0  0
    5.3838   -0.3064    0.9924 H   0  0  0  0  0  0  0  0  0  0  0  0
    6.2318   -0.2247   -2.8600 H   0  0  0  0  0  0  0  0  0  0  0  0
    5.7210    1.4594   -2.7626 H   0  0  0  0  0  0  0  0  0  0  0  0
    6.6657    2.7150   -0.8447 H   0  0  0  0  0  0  0  0  0  0  0  0
    5.0994    2.3033   -0.1271 H   0  0  0  0  0  0  0  0  0  0  0  0
    7.6545    1.6545    0.9180 H   0  0  0  0  0  0  0  0  0  0  0  0
    7.7279   -0.6820   -1.1615 H   0  0  0  0  0  0  0  0  0  0  0  0
    6.7254   -1.8671    0.4144 H   0  0  0  0  0  0  0  0  0  0  0  0
    0.5288    1.4374    2.8328 H   0  0  0  0  0  0  0  0  0  0  0  0
   -1.2654    0.3405    2.7899 H   0  0  0  0  0  0  0  0  0  0  0  0
   -2.1264   -1.9160    2.9234 H   0  0  0  0  0  0  0  0  0  0  0  0
  1  2  1  0
  2  3  1  0
  3  4  1  0
  4  5  2  0
  5  6  1  0
  6  7  2  0
  7  8  1  0
  7  9  1  0
  9 10  2  0
 10 11  1  0
 11 12  2  0
 11 13  1  0
  4 14  1  0
 14 15  1  0
 15 16  1  0
 16 17  1  0
 17 18  1  0
 18 19  1  0
 19 20  1  0
 19 21  1  0
 21 22  1  0
 22 23  1  0
 23 24  1  0
 24 25  1  0
 25 26  1  0
 26 27  1  0
 25 28  1  0
 28 29  1  0
 25 30  1  0
 24 31  1  0
 18 32  1  0
 17 33  1  0
 16 34  1  0
  8  3  2  0
 13  6  1  0
 20 15  1  0
 27 23  1  0
  1 35  1  0
  1 36  1  0
  1 37  1  0
  5 38  1  0
  8 39  1  0
  9 40  1  0
 10 41  1  0
 15 42  1  0
 16 43  1  0
 17 44  1  0
 18 45  1  0
 19 46  1  0
 21 47  1  0
 21 48  1  0
 23 49  1  0
 24 50  1  0
 26 51  1  0
 26 52  1  0
 28 53  1  0
 28 54  1  0
 29 55  1  0
 30 56  1  0
 31 57  1  0
 32 58  1  0
 33 59  1  0
 34 60  1  0
M  END
>  <Name>  (549) 
Hymexeisin (Xeroboside)

>  <PubChem ID>  (549) 
189520

>  <CDB ID>  (549) 
CDB0549

>  <Smiles>  (549) 
COC1=C(C=C2C(=C1)C=CC(=O)O2)OC3C(C(C(C(O3)COC4C(C(CO4)(CO)O)O)O)O)O

>  <Chemical class>  (549) 
6,7-Dioxygenated Coumarins

>  <Natural source>  (549) 
Hymenodictyon excelsum, Xeromphis spinosa

>  <Molecular Formula>  (549) 
C21H26O13

>  <InChI-Key>  (549) 
DCERMUGUBKSKBM-UHFFFAOYSA-N

>  <Total Molweight>  (549) 
486.424

>  <cLogP>  (549) 
-2.2613

>  <cLogS>  (549) 
-1.538

>  <H-Acceptors>  (549) 
13

>  <H-Donors>  (549) 
6

>  <Rotatable Bonds>  (549) 
7

>  <Polar Surface Area>  (549) 
193.83

$$$$
CDB0550
     RDKit          3D

 60 63  0  0  0  0  0  0  0  0999 V2000
   -2.5025    0.9830   -3.1952 C   0  0  0  0  0  0  0  0  0  0  0  0
   -2.4440   -0.0368   -2.2076 O   0  0  0  0  0  0  0  0  0  0  0  0
   -3.1627    0.1561   -1.0558 C   0  0  0  0  0  0  0  0  0  0  0  0
   -3.1279   -0.8978   -0.1243 C   0  0  0  0  0  0  0  0  0  0  0  0
   -3.8501   -0.8298    1.0668 C   0  0  0  0  0  0  0  0  0  0  0  0
   -4.5753    0.3237    1.3412 C   0  0  0  0  0  0  0  0  0  0  0  0
   -4.6064    1.3965    0.4527 C   0  0  0  0  0  0  0  0  0  0  0  0
   -3.8990    1.3085   -0.7524 C   0  0  0  0  0  0  0  0  0  0  0  0
   -5.3814    2.5760    0.8052 C   0  0  0  0  0  0  0  0  0  0  0  0
   -6.0483    2.6046    1.9631 C   0  0  0  0  0  0  0  0  0  0  0  0
   -6.0361    1.4777    2.9124 C   0  0  0  0  0  0  0  0  0  0  0  0
   -6.6667    1.5372    3.9614 O   0  0  0  0  0  0  0  0  0  0  0  0
   -5.2862    0.3652    2.5564 O   0  0  0  0  0  0  0  0  0  0  0  0
   -2.4325   -2.0410   -0.4326 O   0  0  0  0  0  0  0  0  0  0  0  0
   -1.2346   -2.1704    0.3575 C   0  0  0  0  0  0  0  0  0  0  0  0
   -0.5709   -3.5097   -0.0403 C   0  0  0  0  0  0  0  0  0  0  0  0
    0.9442   -3.4345    0.1967 C   0  0  0  0  0  0  0  0  0  0  0  0
    1.5521   -2.3206   -0.6827 C   0  0  0  0  0  0  0  0  0  0  0  0
    0.5254   -1.1889   -0.9230 C   0  0  0  0  0  0  0  0  0  0  0  0
   -0.3373   -1.0586    0.2165 O   0  0  0  0  0  0  0  0  0  0  0  0
    1.2113    0.1594   -1.1806 C   0  0  0  0  0  0  0  0  0  0  0  0
    2.0322    0.5096   -0.0622 O   0  0  0  0  0  0  0  0  0  0  0  0
    2.7042    1.7564   -0.2515 C   0  0  0  0  0  0  0  0  0  0  0  0
    3.2692    2.2665    1.0929 C   0  0  0  0  0  0  0  0  0  0  0  0
    4.4647    1.4263    1.5702 C   0  0  0  0  0  0  0  0  0  0  0  0
    5.4712    1.2218    0.4317 C   0  0  0  0  0  0  0  0  0  0  0  0
    4.7690    0.7338   -0.8388 C   0  0  0  0  0  0  0  0  0  0  0  0
    3.7434    1.6569   -1.2320 O   0  0  0  0  0  0  0  0  0  0  0  0
    6.1469    2.4562    0.1606 O   0  0  0  0  0  0  0  0  0  0  0  0
    4.0082    0.1606    2.0716 O   0  0  0  0  0  0  0  0  0  0  0  0
    2.2535    2.2813    2.1041 O   0  0  0  0  0  0  0  0  0  0  0  0
    1.9534   -2.8472   -1.9533 O   0  0  0  0  0  0  0  0  0  0  0  0
    1.2489   -3.1826    1.5780 O   0  0  0  0  0  0  0  0  0  0  0  0
   -1.1581   -4.6111    0.6671 O   0  0  0  0  0  0  0  0  0  0  0  0
   -3.5283    1.1376   -3.5453 H   0  0  0  0  0  0  0  0  0  0  0  0
   -2.0647    1.9153   -2.8238 H   0  0  0  0  0  0  0  0  0  0  0  0
   -1.9048    0.6538   -4.0507 H   0  0  0  0  0  0  0  0  0  0  0  0
   -3.8569   -1.6581    1.7672 H   0  0  0  0  0  0  0  0  0  0  0  0
   -3.9351    2.1470   -1.4396 H   0  0  0  0  0  0  0  0  0  0  0  0
   -5.4069    3.4191    0.1238 H   0  0  0  0  0  0  0  0  0  0  0  0
   -6.6359    3.4639    2.2629 H   0  0  0  0  0  0  0  0  0  0  0  0
   -1.5176   -2.2246    1.4165 H   0  0  0  0  0  0  0  0  0  0  0  0
   -0.7492   -3.7138   -1.1042 H   0  0  0  0  0  0  0  0  0  0  0  0
    1.3941   -4.4054   -0.0383 H   0  0  0  0  0  0  0  0  0  0  0  0
    2.4535   -1.9344   -0.1942 H   0  0  0  0  0  0  0  0  0  0  0  0
   -0.0834   -1.4092   -1.8100 H   0  0  0  0  0  0  0  0  0  0  0  0
    0.4472    0.9350   -1.3081 H   0  0  0  0  0  0  0  0  0  0  0  0
    1.8227    0.1011   -2.0878 H   0  0  0  0  0  0  0  0  0  0  0  0
    1.9725    2.4927   -0.6063 H   0  0  0  0  0  0  0  0  0  0  0  0
    3.6119    3.2984    0.9495 H   0  0  0  0  0  0  0  0  0  0  0  0
    4.9337    1.9484    2.4133 H   0  0  0  0  0  0  0  0  0  0  0  0
    6.2301    0.4892    0.7265 H   0  0  0  0  0  0  0  0  0  0  0  0
    4.3490   -0.2700   -0.7151 H   0  0  0  0  0  0  0  0  0  0  0  0
    5.4853    0.6958   -1.6663 H   0  0  0  0  0  0  0  0  0  0  0  0
    5.6588    2.9080   -0.5546 H   0  0  0  0  0  0  0  0  0  0  0  0
    4.7174   -0.1971    2.6356 H   0  0  0  0  0  0  0  0  0  0  0  0
    2.0307    1.3346    2.2276 H   0  0  0  0  0  0  0  0  0  0  0  0
    2.6536   -3.5034   -1.7815 H   0  0  0  0  0  0  0  0  0  0  0  0
    1.0537   -2.2446    1.7662 H   0  0  0  0  0  0  0  0  0  0  0  0
   -2.1089   -4.6075    0.4548 H   0  0  0  0  0  0  0  0  0  0  0  0
  1  2  1  0
  2  3  1  0
  3  4  1  0
  4  5  2  0
  5  6  1  0
  6  7  2  0
  7  8  1  0
  7  9  1  0
  9 10  2  0
 10 11  1  0
 11 12  2  0
 11 13  1  0
  4 14  1  0
 14 15  1  0
 15 16  1  0
 16 17  1  0
 17 18  1  0
 18 19  1  0
 19 20  1  0
 19 21  1  0
 21 22  1  0
 22 23  1  0
 23 24  1  0
 24 25  1  0
 25 26  1  0
 26 27  1  0
 27 28  1  0
 26 29  1  0
 25 30  1  0
 24 31  1  0
 18 32  1  0
 17 33  1  0
 16 34  1  0
  8  3  2  0
 13  6  1  0
 20 15  1  0
 28 23  1  0
  1 35  1  0
  1 36  1  0
  1 37  1  0
  5 38  1  0
  8 39  1  0
  9 40  1  0
 10 41  1  0
 15 42  1  0
 16 43  1  0
 17 44  1  0
 18 45  1  0
 19 46  1  0
 21 47  1  0
 21 48  1  0
 23 49  1  0
 24 50  1  0
 25 51  1  0
 26 52  1  0
 27 53  1  0
 27 54  1  0
 29 55  1  0
 30 56  1  0
 31 57  1  0
 32 58  1  0
 33 59  1  0
 34 60  1  0
M  END
>  <Name>  (550) 
Fabiatrin

>  <PubChem ID>  (550) 
10994544

>  <CDB ID>  (550) 
CDB0550

>  <Smiles>  (550) 
COC1=C(C=C2C(=C1)C=CC(=O)O2)OC3C(C(C(C(O3)COC4C(C(C(CO4)O)O)O)O)O)O

>  <Chemical class>  (550) 
6,7-Dioxygenated Coumarins

>  <Natural source>  (550) 
Fabiana irnbricata

>  <Molecular Formula>  (550) 
C21H26O13

>  <InChI-Key>  (550) 
AHBJPGDMGKOLJC-UHFFFAOYSA-N

>  <Total Molweight>  (550) 
486.424

>  <cLogP>  (550) 
-2.1427

>  <cLogS>  (550) 
-1.807

>  <H-Acceptors>  (550) 
13

>  <H-Donors>  (550) 
6

>  <Rotatable Bonds>  (550) 
6

>  <Polar Surface Area>  (550) 
193.83

$$$$
CDB0551
     RDKit          3D

 63 66  0  0  0  0  0  0  0  0999 V2000
   -4.3389    1.9702    2.0228 C   0  0  0  0  0  0  0  0  0  0  0  0
   -3.4952    1.4655    0.8588 C   0  0  0  0  0  0  0  0  0  0  0  0
   -4.2298    1.5279   -0.4973 C   0  0  0  0  0  0  0  0  0  0  0  0
   -3.5136    0.6687   -1.5622 C   0  0  0  0  0  0  0  0  0  0  0  0
   -2.0972    0.3004   -1.1269 C   0  0  0  0  0  0  0  0  0  0  0  0
   -2.1234   -0.3858    0.2582 C   0  0  0  0  0  0  0  0  0  0  0  0
   -3.1517    0.0998    1.1221 O   0  0  0  0  0  0  0  0  0  0  0  0
   -0.8339   -0.1923    0.8531 O   0  0  0  0  0  0  0  0  0  0  0  0
   -0.6139   -1.0962    1.9428 C   0  0  0  0  0  0  0  0  0  0  0  0
    0.6748   -0.7298    2.6940 C   0  0  0  0  0  0  0  0  0  0  0  0
    0.5670    0.6363    3.3964 C   0  0  0  0  0  0  0  0  0  0  0  0
    1.9718    1.1537    3.7085 C   0  0  0  0  0  0  0  0  0  0  0  0
    2.8089    1.2942    2.4297 C   0  0  0  0  0  0  0  0  0  0  0  0
    2.2510    0.4094    1.2925 C   0  0  0  0  0  0  0  0  0  0  0  0
    1.8165   -0.8437    1.8222 O   0  0  0  0  0  0  0  0  0  0  0  0
    3.3177    0.2643    0.3345 O   0  0  0  0  0  0  0  0  0  0  0  0
    2.8687   -0.3079   -0.8268 C   0  0  0  0  0  0  0  0  0  0  0  0
    3.1485   -1.6546   -1.0927 C   0  0  0  0  0  0  0  0  0  0  0  0
    2.7285   -2.2334   -2.2959 C   0  0  0  0  0  0  0  0  0  0  0  0
    2.0163   -1.4683   -3.2233 C   0  0  0  0  0  0  0  0  0  0  0  0
    1.5337   -2.0262   -4.4760 C   0  0  0  0  0  0  0  0  0  0  0  0
    0.8366   -1.2542   -5.3155 C   0  0  0  0  0  0  0  0  0  0  0  0
    0.5372    0.1601   -5.0295 C   0  0  0  0  0  0  0  0  0  0  0  0
   -0.1199    0.8330   -5.8144 O   0  0  0  0  0  0  0  0  0  0  0  0
    1.0400    0.6799   -3.8441 O   0  0  0  0  0  0  0  0  0  0  0  0
    1.7620   -0.1259   -2.9426 C   0  0  0  0  0  0  0  0  0  0  0  0
    2.1882    0.4711   -1.7602 C   0  0  0  0  0  0  0  0  0  0  0  0
    3.8928   -2.3525   -0.1780 O   0  0  0  0  0  0  0  0  0  0  0  0
    3.2555   -3.5548    0.2471 C   0  0  0  0  0  0  0  0  0  0  0  0
    2.8295    2.6807    2.0276 O   0  0  0  0  0  0  0  0  0  0  0  0
    1.8657    2.4063    4.4049 O   0  0  0  0  0  0  0  0  0  0  0  0
   -0.1826    0.5138    4.6093 O   0  0  0  0  0  0  0  0  0  0  0  0
   -1.4979   -0.5604   -2.1126 O   0  0  0  0  0  0  0  0  0  0  0  0
   -3.4467    1.3902   -2.8018 O   0  0  0  0  0  0  0  0  0  0  0  0
   -5.5765    1.0411   -0.3577 O   0  0  0  0  0  0  0  0  0  0  0  0
   -3.7503    1.9513    2.9468 H   0  0  0  0  0  0  0  0  0  0  0  0
   -5.2085    1.3292    2.2020 H   0  0  0  0  0  0  0  0  0  0  0  0
   -4.6800    2.9952    1.8501 H   0  0  0  0  0  0  0  0  0  0  0  0
   -2.5764    2.0653    0.8226 H   0  0  0  0  0  0  0  0  0  0  0  0
   -4.3149    2.5708   -0.8219 H   0  0  0  0  0  0  0  0  0  0  0  0
   -4.0859   -0.2419   -1.7782 H   0  0  0  0  0  0  0  0  0  0  0  0
   -1.4702    1.2011   -1.1068 H   0  0  0  0  0  0  0  0  0  0  0  0
   -2.2864   -1.4621    0.1204 H   0  0  0  0  0  0  0  0  0  0  0  0
   -1.4646   -1.0779    2.6333 H   0  0  0  0  0  0  0  0  0  0  0  0
   -0.5137   -2.1046    1.5247 H   0  0  0  0  0  0  0  0  0  0  0  0
    0.8136   -1.5032    3.4603 H   0  0  0  0  0  0  0  0  0  0  0  0
    0.0376    1.3706    2.7773 H   0  0  0  0  0  0  0  0  0  0  0  0
    2.4592    0.4538    4.3982 H   0  0  0  0  0  0  0  0  0  0  0  0
    3.8476    1.0266    2.6585 H   0  0  0  0  0  0  0  0  0  0  0  0
    1.4169    0.9345    0.8086 H   0  0  0  0  0  0  0  0  0  0  0  0
    2.9750   -3.2679   -2.5157 H   0  0  0  0  0  0  0  0  0  0  0  0
    1.7417   -3.0643   -4.7116 H   0  0  0  0  0  0  0  0  0  0  0  0
    0.4541   -1.6331   -6.2557 H   0  0  0  0  0  0  0  0  0  0  0  0
    1.9933    1.5227   -1.5770 H   0  0  0  0  0  0  0  0  0  0  0  0
    3.4213   -4.3555   -0.4803 H   0  0  0  0  0  0  0  0  0  0  0  0
    3.7138   -3.8598    1.1927 H   0  0  0  0  0  0  0  0  0  0  0  0
    2.1831   -3.4114    0.4230 H   0  0  0  0  0  0  0  0  0  0  0  0
    3.4438    2.7293    1.2683 H   0  0  0  0  0  0  0  0  0  0  0  0
    2.1636    3.0837    3.7587 H   0  0  0  0  0  0  0  0  0  0  0  0
    0.0353    1.3175    5.1264 H   0  0  0  0  0  0  0  0  0  0  0  0
   -0.6164   -0.7898   -1.7624 H   0  0  0  0  0  0  0  0  0  0  0  0
   -2.8935    0.8492   -3.3995 H   0  0  0  0  0  0  0  0  0  0  0  0
   -5.5288    0.1904    0.1150 H   0  0  0  0  0  0  0  0  0  0  0  0
  1  2  1  0
  2  3  1  0
  3  4  1  0
  4  5  1  0
  5  6  1  0
  6  7  1  0
  6  8  1  0
  8  9  1  0
  9 10  1  0
 10 11  1  0
 11 12  1  0
 12 13  1  0
 13 14  1  0
 14 15  1  0
 14 16  1  0
 16 17  1  0
 17 18  1  0
 18 19  2  0
 19 20  1  0
 20 21  1  0
 21 22  2  0
 22 23  1  0
 23 24  2  0
 23 25  1  0
 25 26  1  0
 26 27  1  0
 18 28  1  0
 28 29  1  0
 13 30  1  0
 12 31  1  0
 11 32  1  0
  5 33  1  0
  4 34  1  0
  3 35  1  0
  7  2  1  0
 15 10  1  0
 27 17  2  0
 26 20  2  0
  1 36  1  0
  1 37  1  0
  1 38  1  0
  2 39  1  0
  3 40  1  0
  4 41  1  0
  5 42  1  0
  6 43  1  0
  9 44  1  0
  9 45  1  0
 10 46  1  0
 11 47  1  0
 12 48  1  0
 13 49  1  0
 14 50  1  0
 19 51  1  0
 21 52  1  0
 22 53  1  0
 27 54  1  0
 29 55  1  0
 29 56  1  0
 29 57  1  0
 30 58  1  0
 31 59  1  0
 32 60  1  0
 33 61  1  0
 34 62  1  0
 35 63  1  0
M  END
>  <Name>  (551) 
Haploperoside A

>  <PubChem ID>  (551) 
21607625

>  <CDB ID>  (551) 
CDB0551

>  <Smiles>  (551) 
CC1C(C(C(C(O1)OCC2C(C(C(C(O2)OC3=C(C=C4C=CC(=O)OC4=C3)OC)O)O)O)O)O)O

>  <Chemical class>  (551) 
6,7-Dioxygenated Coumarins

>  <Natural source>  (551) 
Haplophyllurn perforaturn

>  <Molecular Formula>  (551) 
C22H28O13

>  <InChI-Key>  (551) 
FCIZPHNZRNLUJD-UHFFFAOYSA-N

>  <Total Molweight>  (551) 
500.451

>  <cLogP>  (551) 
-1.818

>  <cLogS>  (551) 
-2.185

>  <H-Acceptors>  (551) 
13

>  <H-Donors>  (551) 
6

>  <Rotatable Bonds>  (551) 
6

>  <Polar Surface Area>  (551) 
193.83

$$$$
CDB0552
     RDKit          3D

 83 87  0  0  0  0  0  0  0  0999 V2000
    7.7716   -1.8810    0.8202 C   0  0  0  0  0  0  0  0  0  0  0  0
    6.5301   -1.2418    0.2082 C   0  0  0  0  0  0  0  0  0  0  0  0
    5.9104   -2.1525   -0.8734 C   0  0  0  0  0  0  0  0  0  0  0  0
    4.7832   -3.0133   -0.2889 C   0  0  0  0  0  0  0  0  0  0  0  0
    3.7161   -2.1741    0.4411 C   0  0  0  0  0  0  0  0  0  0  0  0
    4.2834   -0.8046    0.8772 C   0  0  0  0  0  0  0  0  0  0  0  0
    5.6356   -0.9771    1.2984 O   0  0  0  0  0  0  0  0  0  0  0  0
    3.5304   -0.3132    1.9931 O   0  0  0  0  0  0  0  0  0  0  0  0
    2.4523    0.5299    1.5946 C   0  0  0  0  0  0  0  0  0  0  0  0
    1.4774    0.7256    2.7687 C   0  0  0  0  0  0  0  0  0  0  0  0
    0.9739   -0.5967    3.4069 C   0  0  0  0  0  0  0  0  0  0  0  0
   -0.4392   -1.0038    2.9436 C   0  0  0  0  0  0  0  0  0  0  0  0
   -0.6876   -0.4859    1.5286 C   0  0  0  0  0  0  0  0  0  0  0  0
   -0.5899    1.0676    1.5079 C   0  0  0  0  0  0  0  0  0  0  0  0
    0.4142    1.5993    2.3964 O   0  0  0  0  0  0  0  0  0  0  0  0
   -1.8475    1.6402    1.9129 O   0  0  0  0  0  0  0  0  0  0  0  0
   -2.5058    2.3174    0.9263 C   0  0  0  0  0  0  0  0  0  0  0  0
   -1.9840    3.4284    0.2505 C   0  0  0  0  0  0  0  0  0  0  0  0
   -2.7216    4.0538   -0.7606 C   0  0  0  0  0  0  0  0  0  0  0  0
   -4.0092    3.6055   -1.0595 C   0  0  0  0  0  0  0  0  0  0  0  0
   -4.8190    4.2212   -2.0976 C   0  0  0  0  0  0  0  0  0  0  0  0
   -6.0446    3.7479   -2.3420 C   0  0  0  0  0  0  0  0  0  0  0  0
   -6.6209    2.6155   -1.5950 C   0  0  0  0  0  0  0  0  0  0  0  0
   -7.7490    2.2100   -1.8505 O   0  0  0  0  0  0  0  0  0  0  0  0
   -5.8300    2.0463   -0.6071 O   0  0  0  0  0  0  0  0  0  0  0  0
   -4.5353    2.5332   -0.3402 C   0  0  0  0  0  0  0  0  0  0  0  0
   -3.8040    1.8905    0.6545 C   0  0  0  0  0  0  0  0  0  0  0  0
   -0.7329    3.9285    0.5025 O   0  0  0  0  0  0  0  0  0  0  0  0
   -0.7221    4.6423    1.7413 C   0  0  0  0  0  0  0  0  0  0  0  0
   -1.9360   -0.9760    1.0129 O   0  0  0  0  0  0  0  0  0  0  0  0
   -1.8402   -1.3981   -0.3549 C   0  0  0  0  0  0  0  0  0  0  0  0
   -3.2493   -1.8238   -0.7857 C   0  0  0  0  0  0  0  0  0  0  0  0
   -3.2024   -2.4399   -2.1876 C   0  0  0  0  0  0  0  0  0  0  0  0
   -2.0325   -1.8993   -3.0244 C   0  0  0  0  0  0  0  0  0  0  0  0
   -1.5886   -0.4887   -2.5869 C   0  0  0  0  0  0  0  0  0  0  0  0
   -1.3461   -0.3433   -1.1779 O   0  0  0  0  0  0  0  0  0  0  0  0
   -2.5670    0.5955   -3.0266 C   0  0  0  0  0  0  0  0  0  0  0  0
   -0.9151   -2.7933   -2.8573 O   0  0  0  0  0  0  0  0  0  0  0  0
   -4.4464   -2.1833   -2.8568 O   0  0  0  0  0  0  0  0  0  0  0  0
   -3.8327   -2.7629    0.1313 O   0  0  0  0  0  0  0  0  0  0  0  0
   -1.4304   -0.5354    3.8685 O   0  0  0  0  0  0  0  0  0  0  0  0
    0.9314   -0.4893    4.8467 O   0  0  0  0  0  0  0  0  0  0  0  0
    2.5340   -2.0207   -0.3658 O   0  0  0  0  0  0  0  0  0  0  0  0
    4.1565   -3.7706   -1.3394 O   0  0  0  0  0  0  0  0  0  0  0  0
    5.3310   -1.3580   -1.9270 O   0  0  0  0  0  0  0  0  0  0  0  0
    7.5243   -2.8276    1.3130 H   0  0  0  0  0  0  0  0  0  0  0  0
    8.5374   -2.0692    0.0616 H   0  0  0  0  0  0  0  0  0  0  0  0
    8.1982   -1.2282    1.5897 H   0  0  0  0  0  0  0  0  0  0  0  0
    6.8104   -0.2752   -0.2273 H   0  0  0  0  0  0  0  0  0  0  0  0
    6.6632   -2.7804   -1.3628 H   0  0  0  0  0  0  0  0  0  0  0  0
    5.2194   -3.7276    0.4193 H   0  0  0  0  0  0  0  0  0  0  0  0
    3.3909   -2.7324    1.3278 H   0  0  0  0  0  0  0  0  0  0  0  0
    4.2495   -0.0626    0.0686 H   0  0  0  0  0  0  0  0  0  0  0  0
    2.8571    1.5050    1.2962 H   0  0  0  0  0  0  0  0  0  0  0  0
    1.9411    0.1317    0.7163 H   0  0  0  0  0  0  0  0  0  0  0  0
    2.0411    1.2625    3.5424 H   0  0  0  0  0  0  0  0  0  0  0  0
    1.6702   -1.4119    3.1829 H   0  0  0  0  0  0  0  0  0  0  0  0
   -0.5265   -2.0963    2.9623 H   0  0  0  0  0  0  0  0  0  0  0  0
    0.1231   -0.9030    0.9197 H   0  0  0  0  0  0  0  0  0  0  0  0
   -0.3160    1.3731    0.4912 H   0  0  0  0  0  0  0  0  0  0  0  0
   -2.2834    4.8921   -1.2949 H   0  0  0  0  0  0  0  0  0  0  0  0
   -4.4163    5.0566   -2.6595 H   0  0  0  0  0  0  0  0  0  0  0  0
   -6.6807    4.1773   -3.1064 H   0  0  0  0  0  0  0  0  0  0  0  0
   -4.2267    1.0529    1.2017 H   0  0  0  0  0  0  0  0  0  0  0  0
   -1.4258    5.4819    1.7119 H   0  0  0  0  0  0  0  0  0  0  0  0
   -0.9435    3.9954    2.5953 H   0  0  0  0  0  0  0  0  0  0  0  0
    0.2837    5.0498    1.8807 H   0  0  0  0  0  0  0  0  0  0  0  0
   -1.1537   -2.2534   -0.3809 H   0  0  0  0  0  0  0  0  0  0  0  0
   -3.9168   -0.9542   -0.7762 H   0  0  0  0  0  0  0  0  0  0  0  0
   -3.1216   -3.5316   -2.1119 H   0  0  0  0  0  0  0  0  0  0  0  0
   -2.2877   -1.9072   -4.0905 H   0  0  0  0  0  0  0  0  0  0  0  0
   -0.6254   -0.2697   -3.0639 H   0  0  0  0  0  0  0  0  0  0  0  0
   -2.7283    0.5675   -4.1085 H   0  0  0  0  0  0  0  0  0  0  0  0
   -3.5358    0.4999   -2.5294 H   0  0  0  0  0  0  0  0  0  0  0  0
   -2.1754    1.5834   -2.7630 H   0  0  0  0  0  0  0  0  0  0  0  0
   -0.2283   -2.5201   -3.4911 H   0  0  0  0  0  0  0  0  0  0  0  0
   -5.1397   -2.5515   -2.2745 H   0  0  0  0  0  0  0  0  0  0  0  0
   -3.6557   -2.3876    1.0195 H   0  0  0  0  0  0  0  0  0  0  0  0
   -0.9456   -0.4028    4.7102 H   0  0  0  0  0  0  0  0  0  0  0  0
    1.8384   -0.2918    5.1444 H   0  0  0  0  0  0  0  0  0  0  0  0
    2.4043   -2.8974   -0.7831 H   0  0  0  0  0  0  0  0  0  0  0  0
    4.1234   -3.1530   -2.1010 H   0  0  0  0  0  0  0  0  0  0  0  0
    6.0549   -0.8661   -2.3570 H   0  0  0  0  0  0  0  0  0  0  0  0
  1  2  1  0
  2  3  1  0
  3  4  1  0
  4  5  1  0
  5  6  1  0
  6  7  1  0
  6  8  1  0
  8  9  1  0
  9 10  1  0
 10 11  1  0
 11 12  1  0
 12 13  1  0
 13 14  1  0
 14 15  1  0
 14 16  1  0
 16 17  1  0
 17 18  1  0
 18 19  2  0
 19 20  1  0
 20 21  1  0
 21 22  2  0
 22 23  1  0
 23 24  2  0
 23 25  1  0
 25 26  1  0
 26 27  1  0
 18 28  1  0
 28 29  1  0
 13 30  1  0
 30 31  1  0
 31 32  1  0
 32 33  1  0
 33 34  1  0
 34 35  1  0
 35 36  1  0
 35 37  1  0
 34 38  1  0
 33 39  1  0
 32 40  1  0
 12 41  1  0
 11 42  1  0
  5 43  1  0
  4 44  1  0
  3 45  1  0
  7  2  1  0
 15 10  1  0
 27 17  2  0
 26 20  2  0
 36 31  1  0
  1 46  1  0
  1 47  1  0
  1 48  1  0
  2 49  1  0
  3 50  1  0
  4 51  1  0
  5 52  1  0
  6 53  1  0
  9 54  1  0
  9 55  1  0
 10 56  1  0
 11 57  1  0
 12 58  1  0
 13 59  1  0
 14 60  1  0
 19 61  1  0
 21 62  1  0
 22 63  1  0
 27 64  1  0
 29 65  1  0
 29 66  1  0
 29 67  1  0
 31 68  1  0
 32 69  1  0
 33 70  1  0
 34 71  1  0
 35 72  1  0
 37 73  1  0
 37 74  1  0
 37 75  1  0
 38 76  1  0
 39 77  1  0
 40 78  1  0
 41 79  1  0
 42 80  1  0
 43 81  1  0
 44 82  1  0
 45 83  1  0
M  END
>  <Name>  (552) 
Haploperoside E

>  <PubChem ID>  (552) 
21607628

>  <CDB ID>  (552) 
CDB0552

>  <Smiles>  (552) 
CC1C(C(C(C(O1)OCC2C(C(C(C(O2)OC3=C(C=C4C=CC(=O)OC4=C3)OC)OC5C(C(C(C(O5)C)O)O)O)O)O)O)O)O

>  <Chemical class>  (552) 
6,7-Dioxygenated Coumarins

>  <Natural source>  (552) 
Haplophyllurn perforaturn

>  <Molecular Formula>  (552) 
C28H38O17

>  <InChI-Key>  (552) 
LLQBCHODNVGKSF-UHFFFAOYSA-N

>  <Total Molweight>  (552) 
646.593

>  <cLogP>  (552) 
-2.7284

>  <cLogS>  (552) 
-2.392

>  <H-Acceptors>  (552) 
17

>  <H-Donors>  (552) 
8

>  <Rotatable Bonds>  (552) 
8

>  <Polar Surface Area>  (552) 
252.75

$$$$
CDB0553
     RDKit          3D

 20 22  0  0  0  0  0  0  0  0999 V2000
   -3.6206   -0.0529    0.2671 C   0  0  0  0  0  0  0  0  0  0  0  0
   -2.8357    1.0823   -0.1555 O   0  0  0  0  0  0  0  0  0  0  0  0
   -1.5772    0.5736   -0.0666 C   0  0  0  0  0  0  0  0  0  0  0  0
   -1.5708   -0.7351    0.3636 C   0  0  0  0  0  0  0  0  0  0  0  0
   -2.8234   -1.2091    0.5978 O   0  0  0  0  0  0  0  0  0  0  0  0
   -0.3999   -1.4413    0.5230 C   0  0  0  0  0  0  0  0  0  0  0  0
    0.7840   -0.7655    0.2267 C   0  0  0  0  0  0  0  0  0  0  0  0
    0.7961    0.5694   -0.2133 C   0  0  0  0  0  0  0  0  0  0  0  0
   -0.4131    1.2555   -0.3636 C   0  0  0  0  0  0  0  0  0  0  0  0
    2.0745    1.2000   -0.5005 C   0  0  0  0  0  0  0  0  0  0  0  0
    3.2043    0.5039   -0.3420 C   0  0  0  0  0  0  0  0  0  0  0  0
    3.2178   -0.8959    0.1178 C   0  0  0  0  0  0  0  0  0  0  0  0
    4.2761   -1.4995    0.2504 O   0  0  0  0  0  0  0  0  0  0  0  0
    1.9885   -1.4815    0.3871 O   0  0  0  0  0  0  0  0  0  0  0  0
   -4.3107   -0.3221   -0.5408 H   0  0  0  0  0  0  0  0  0  0  0  0
   -4.2053    0.2339    1.1487 H   0  0  0  0  0  0  0  0  0  0  0  0
   -0.3992   -2.4701    0.8614 H   0  0  0  0  0  0  0  0  0  0  0  0
   -0.4532    2.2855   -0.7000 H   0  0  0  0  0  0  0  0  0  0  0  0
    2.0929    2.2297   -0.8405 H   0  0  0  0  0  0  0  0  0  0  0  0
    4.1751    0.9393   -0.5458 H   0  0  0  0  0  0  0  0  0  0  0  0
  1  2  1  0
  2  3  1  0
  3  4  1  0
  4  5  1  0
  4  6  2  0
  6  7  1  0
  7  8  2  0
  8  9  1  0
  8 10  1  0
 10 11  2  0
 11 12  1  0
 12 13  2  0
 12 14  1  0
  5  1  1  0
  9  3  2  0
 14  7  1  0
  1 15  1  0
  1 16  1  0
  6 17  1  0
  9 18  1  0
 10 19  1  0
 11 20  1  0
M  END
>  <Name>  (553) 
Ayapin

>  <PubChem ID>  (553) 
3083597

>  <CDB ID>  (553) 
CDB0553

>  <Smiles>  (553) 
C1OC2=C(O1)C=C3C(=C2)C=CC(=O)O3

>  <Chemical class>  (553) 
6,7-Dioxygenated Coumarins

>  <Natural source>  (553) 
Eupatorium ayapana

>  <Molecular Formula>  (553) 
C10H6O4

>  <InChI-Key>  (553) 
MLQTZXHZYMNZJE-UHFFFAOYSA-N

>  <Total Molweight>  (553) 
190.154

>  <cLogP>  (553) 
1.6088

>  <cLogS>  (553) 
-3.081

>  <H-Acceptors>  (553) 
4

>  <H-Donors>  (553) 
0

>  <Rotatable Bonds>  (553) 
0

>  <Polar Surface Area>  (553) 
44.76

$$$$
CDB0554
     RDKit          3D

 30 32  0  0  0  0  0  0  0  0999 V2000
   -4.6232    0.3431   -0.6245 C   0  0  0  0  0  0  0  0  0  0  0  0
   -3.4415   -0.4804   -0.1848 C   0  0  0  0  0  0  0  0  0  0  0  0
   -3.6181   -1.7268    0.2898 C   0  0  0  0  0  0  0  0  0  0  0  0
   -2.0790    0.1820   -0.3543 C   0  0  0  0  0  0  0  0  0  0  0  0
   -1.8193    1.2514    0.7127 C   0  0  0  0  0  0  0  0  0  0  0  0
   -0.5964    1.9534    0.4447 O   0  0  0  0  0  0  0  0  0  0  0  0
    0.4206    1.0891    0.1349 C   0  0  0  0  0  0  0  0  0  0  0  0
    0.2080   -0.2509   -0.2106 C   0  0  0  0  0  0  0  0  0  0  0  0
   -1.0392   -0.8139   -0.2940 O   0  0  0  0  0  0  0  0  0  0  0  0
    1.2898   -1.0921   -0.4819 C   0  0  0  0  0  0  0  0  0  0  0  0
    2.5899   -0.5854   -0.4377 C   0  0  0  0  0  0  0  0  0  0  0  0
    3.7506   -1.4141   -0.7192 C   0  0  0  0  0  0  0  0  0  0  0  0
    4.9722   -0.8748   -0.6665 C   0  0  0  0  0  0  0  0  0  0  0  0
    5.1992    0.5423   -0.3315 C   0  0  0  0  0  0  0  0  0  0  0  0
    6.3350    1.0011   -0.2938 O   0  0  0  0  0  0  0  0  0  0  0  0
    4.0758    1.3135   -0.0662 O   0  0  0  0  0  0  0  0  0  0  0  0
    2.7814    0.7588   -0.1176 C   0  0  0  0  0  0  0  0  0  0  0  0
    1.7125    1.6051    0.1678 C   0  0  0  0  0  0  0  0  0  0  0  0
   -4.5063    0.6474   -1.6697 H   0  0  0  0  0  0  0  0  0  0  0  0
   -4.7204    1.2417   -0.0080 H   0  0  0  0  0  0  0  0  0  0  0  0
   -5.5639   -0.2126   -0.5471 H   0  0  0  0  0  0  0  0  0  0  0  0
   -4.6055   -2.1696    0.3811 H   0  0  0  0  0  0  0  0  0  0  0  0
   -2.7802   -2.3446    0.6007 H   0  0  0  0  0  0  0  0  0  0  0  0
   -2.0311    0.6250   -1.3592 H   0  0  0  0  0  0  0  0  0  0  0  0
   -1.7526    0.8141    1.7177 H   0  0  0  0  0  0  0  0  0  0  0  0
   -2.6166    2.0012    0.7266 H   0  0  0  0  0  0  0  0  0  0  0  0
    1.1031   -2.1322   -0.7355 H   0  0  0  0  0  0  0  0  0  0  0  0
    3.6080   -2.4600   -0.9683 H   0  0  0  0  0  0  0  0  0  0  0  0
    5.8626   -1.4574   -0.8694 H   0  0  0  0  0  0  0  0  0  0  0  0
    1.8845    2.6460    0.4230 H   0  0  0  0  0  0  0  0  0  0  0  0
  1  2  1  0
  2  3  2  0
  2  4  1  0
  4  5  1  0
  5  6  1  0
  6  7  1  0
  7  8  1  0
  8  9  1  0
  8 10  2  0
 10 11  1  0
 11 12  1  0
 12 13  2  0
 13 14  1  0
 14 15  2  0
 14 16  1  0
 16 17  1  0
 17 18  1  0
  9  4  1  0
 18  7  2  0
 17 11  2  0
  1 19  1  0
  1 20  1  0
  1 21  1  0
  3 22  1  0
  3 23  1  0
  4 24  1  0
  5 25  1  0
  5 26  1  0
 10 27  1  0
 12 28  1  0
 13 29  1  0
 18 30  1  0
M  END
>  <Name>  (554) 
Obliquin

>  <PubChem ID>  (554) 
6708593

>  <CDB ID>  (554) 
CDB0554

>  <Smiles>  (554) 
CC(=C)C1COC2=C(O1)C=C3C=CC(=O)OC3=C2

>  <Chemical class>  (554) 
6,7-Dioxygenated Coumarins

>  <Natural source>  (554) 
Ptaeroxylon obliquum

>  <Molecular Formula>  (554) 
C14H12O4

>  <InChI-Key>  (554) 
DUECABXXAMFFBH-CYBMUJFWSA-N

>  <Total Molweight>  (554) 
244.245

>  <cLogP>  (554) 
2.6762

>  <cLogS>  (554) 
-3.263

>  <H-Acceptors>  (554) 
4

>  <H-Donors>  (554) 
0

>  <Rotatable Bonds>  (554) 
1

>  <Polar Surface Area>  (554) 
44.76

$$$$
CDB0555
     RDKit          3D

 34 36  0  0  0  0  0  0  0  0999 V2000
    4.6052    2.3361    0.6869 C   0  0  0  0  0  0  0  0  0  0  0  0
    4.1236    1.0649    0.2477 O   0  0  0  0  0  0  0  0  0  0  0  0
    3.0070    0.6514    0.9027 C   0  0  0  0  0  0  0  0  0  0  0  0
    2.4334    1.2420    1.8020 O   0  0  0  0  0  0  0  0  0  0  0  0
    2.6007   -0.6573    0.3496 C   0  0  0  0  0  0  0  0  0  0  0  0
    1.3459   -0.7926   -0.1241 C   0  0  0  0  0  0  0  0  0  0  0  0
    0.7992   -2.0591   -0.7335 C   0  0  0  0  0  0  0  0  0  0  0  0
   -0.4949   -2.3939   -0.2156 O   0  0  0  0  0  0  0  0  0  0  0  0
   -1.3367   -1.3160   -0.2070 C   0  0  0  0  0  0  0  0  0  0  0  0
   -0.8649   -0.0013   -0.1845 C   0  0  0  0  0  0  0  0  0  0  0  0
    0.4748    0.2918   -0.1333 O   0  0  0  0  0  0  0  0  0  0  0  0
   -1.7559    1.0742   -0.1658 C   0  0  0  0  0  0  0  0  0  0  0  0
   -3.1305    0.8302   -0.1615 C   0  0  0  0  0  0  0  0  0  0  0  0
   -4.1047    1.9089   -0.1381 C   0  0  0  0  0  0  0  0  0  0  0  0
   -5.4090    1.6173   -0.1284 C   0  0  0  0  0  0  0  0  0  0  0  0
   -5.9118    0.2320   -0.1408 C   0  0  0  0  0  0  0  0  0  0  0  0
   -7.1160    0.0046   -0.1360 O   0  0  0  0  0  0  0  0  0  0  0  0
   -4.9630   -0.7811   -0.1591 O   0  0  0  0  0  0  0  0  0  0  0  0
   -3.5842   -0.4898   -0.1690 C   0  0  0  0  0  0  0  0  0  0  0  0
   -2.7040   -1.5695   -0.1853 C   0  0  0  0  0  0  0  0  0  0  0  0
    3.6415   -1.7261    0.3909 C   0  0  0  0  0  0  0  0  0  0  0  0
    4.0306   -2.0647   -0.9348 O   0  0  0  0  0  0  0  0  0  0  0  0
    4.8947    2.2921    1.7415 H   0  0  0  0  0  0  0  0  0  0  0  0
    5.4902    2.5855    0.0951 H   0  0  0  0  0  0  0  0  0  0  0  0
    3.8494    3.1107    0.5232 H   0  0  0  0  0  0  0  0  0  0  0  0
    1.4404   -2.9240   -0.5430 H   0  0  0  0  0  0  0  0  0  0  0  0
    0.7250   -1.9501   -1.8233 H   0  0  0  0  0  0  0  0  0  0  0  0
   -1.3663    2.0883   -0.1389 H   0  0  0  0  0  0  0  0  0  0  0  0
   -3.7585    2.9366   -0.1267 H   0  0  0  0  0  0  0  0  0  0  0  0
   -6.1666    2.3913   -0.1100 H   0  0  0  0  0  0  0  0  0  0  0  0
   -3.0772   -2.5886   -0.1867 H   0  0  0  0  0  0  0  0  0  0  0  0
    3.2536   -2.6269    0.8778 H   0  0  0  0  0  0  0  0  0  0  0  0
    4.5345   -1.4282    0.9509 H   0  0  0  0  0  0  0  0  0  0  0  0
    4.4947   -1.2886   -1.2979 H   0  0  0  0  0  0  0  0  0  0  0  0
  1  2  1  0
  2  3  1  0
  3  4  2  0
  3  5  1  0
  5  6  2  3
  6  7  1  0
  7  8  1  0
  8  9  1  0
  9 10  1  0
 10 11  1  0
 10 12  2  0
 12 13  1  0
 13 14  1  0
 14 15  2  0
 15 16  1  0
 16 17  2  0
 16 18  1  0
 18 19  1  0
 19 20  1  0
  5 21  1  0
 21 22  1  0
 11  6  1  0
 20  9  2  0
 19 13  2  0
  1 23  1  0
  1 24  1  0
  1 25  1  0
  7 26  1  0
  7 27  1  0
 12 28  1  0
 14 29  1  0
 15 30  1  0
 20 31  1  0
 21 32  1  0
 21 33  1  0
 22 34  1  0
M  END
>  <Name>  (555) 
Bethancorol

>  <PubChem ID>  (555) 
90474028

>  <CDB ID>  (555) 
CDB0555

>  <Smiles>  (555) 
COC(=O)C(=C1COC2=C(O1)C=C3C=CC(=O)OC3=C2)CO

>  <Chemical class>  (555) 
6,7-Dioxygenated Coumarins

>  <Natural source>  (555) 
Cneorum tricoccum

>  <Molecular Formula>  (555) 
C15H12O7

>  <InChI-Key>  (555) 
VWRZEGWXTFRXOV-UHFFFAOYSA-N

>  <Total Molweight>  (555) 
304.253

>  <cLogP>  (555) 
1.1751

>  <cLogS>  (555) 
-2.522

>  <H-Acceptors>  (555) 
7

>  <H-Donors>  (555) 
1

>  <Rotatable Bonds>  (555) 
3

>  <Polar Surface Area>  (555) 
91.29

$$$$
CDB0556
     RDKit          3D

 39 42  0  0  0  0  0  0  0  0999 V2000
   -0.1450   -1.8955   -2.0457 C   0  0  0  0  0  0  0  0  0  0  0  0
   -0.8373   -1.3589   -0.7909 C   0  0  0  0  0  0  0  0  0  0  0  0
    0.0914   -1.2774    0.3063 O   0  0  0  0  0  0  0  0  0  0  0  0
    1.3473   -0.8762   -0.0654 C   0  0  0  0  0  0  0  0  0  0  0  0
    1.7658   -0.7783   -1.3971 C   0  0  0  0  0  0  0  0  0  0  0  0
    0.9645   -1.1003   -2.4599 O   0  0  0  0  0  0  0  0  0  0  0  0
    3.0447   -0.3179   -1.6966 C   0  0  0  0  0  0  0  0  0  0  0  0
    3.9028    0.0116   -0.6506 C   0  0  0  0  0  0  0  0  0  0  0  0
    3.5122   -0.1031    0.6833 C   0  0  0  0  0  0  0  0  0  0  0  0
    2.2227   -0.5520    0.9747 C   0  0  0  0  0  0  0  0  0  0  0  0
    4.4583    0.2547    1.7273 C   0  0  0  0  0  0  0  0  0  0  0  0
    5.6781    0.6842    1.3899 C   0  0  0  0  0  0  0  0  0  0  0  0
    6.1133    0.8128   -0.0122 C   0  0  0  0  0  0  0  0  0  0  0  0
    7.2414    1.2090   -0.2816 O   0  0  0  0  0  0  0  0  0  0  0  0
    5.1927    0.4654   -0.9911 O   0  0  0  0  0  0  0  0  0  0  0  0
   -1.6099   -0.0298   -1.0268 C   0  0  0  0  0  0  0  0  0  0  0  0
   -2.5660    0.3083    0.1077 C   0  0  0  0  0  0  0  0  0  0  0  0
   -3.9558    0.2071   -0.0836 C   0  0  0  0  0  0  0  0  0  0  0  0
   -4.8201    0.5221    0.9610 C   0  0  0  0  0  0  0  0  0  0  0  0
   -4.3191    0.9353    2.1919 C   0  0  0  0  0  0  0  0  0  0  0  0
   -2.9540    1.0434    2.4012 C   0  0  0  0  0  0  0  0  0  0  0  0
   -2.0786    0.7313    1.3595 C   0  0  0  0  0  0  0  0  0  0  0  0
   -5.1757    1.2414    3.2098 O   0  0  0  0  0  0  0  0  0  0  0  0
   -6.1787    0.4419    0.8249 O   0  0  0  0  0  0  0  0  0  0  0  0
   -0.7573    1.0838   -1.2861 O   0  0  0  0  0  0  0  0  0  0  0  0
    0.2214   -2.9159   -1.8701 H   0  0  0  0  0  0  0  0  0  0  0  0
   -0.8508   -1.9468   -2.8819 H   0  0  0  0  0  0  0  0  0  0  0  0
   -1.5761   -2.1155   -0.4944 H   0  0  0  0  0  0  0  0  0  0  0  0
    3.3677   -0.2232   -2.7283 H   0  0  0  0  0  0  0  0  0  0  0  0
    1.8825   -0.6432    2.0025 H   0  0  0  0  0  0  0  0  0  0  0  0
    4.1599    0.1684    2.7662 H   0  0  0  0  0  0  0  0  0  0  0  0
    6.4124    0.9612    2.1365 H   0  0  0  0  0  0  0  0  0  0  0  0
   -2.2078   -0.1540   -1.9385 H   0  0  0  0  0  0  0  0  0  0  0  0
   -4.3509   -0.1128   -1.0433 H   0  0  0  0  0  0  0  0  0  0  0  0
   -2.5735    1.3669    3.3653 H   0  0  0  0  0  0  0  0  0  0  0  0
   -1.0063    0.8192    1.5291 H   0  0  0  0  0  0  0  0  0  0  0  0
   -6.0663    1.0931    2.8345 H   0  0  0  0  0  0  0  0  0  0  0  0
   -6.3811    0.1606   -0.0836 H   0  0  0  0  0  0  0  0  0  0  0  0
   -1.1686    1.8792   -0.9078 H   0  0  0  0  0  0  0  0  0  0  0  0
  1  2  1  0
  2  3  1  0
  3  4  1  0
  4  5  1  0
  5  6  1  0
  5  7  2  0
  7  8  1  0
  8  9  2  0
  9 10  1  0
  9 11  1  0
 11 12  2  0
 12 13  1  0
 13 14  2  0
 13 15  1  0
  2 16  1  0
 16 17  1  0
 17 18  2  0
 18 19  1  0
 19 20  2  0
 20 21  1  0
 21 22  2  0
 20 23  1  0
 19 24  1  0
 16 25  1  0
  6  1  1  0
 10  4  2  0
 15  8  1  0
 22 17  1  0
  1 26  1  0
  1 27  1  0
  2 28  1  0
  7 29  1  0
 10 30  1  0
 11 31  1  0
 12 32  1  0
 16 33  1  0
 18 34  1  0
 21 35  1  0
 22 36  1  0
 23 37  1  0
 24 38  1  0
 25 39  1  0
M  END
>  <Name>  (556) 
Maoyancaosu

>  <PubChem ID>  (556) 
174952

>  <CDB ID>  (556) 
CDB0556

>  <Smiles>  (556) 
C1C(OC2=C(O1)C=C3C(=C2)C=CC(=O)O3)C(C4=CC(=C(C=C4)O)O)O

>  <Chemical class>  (556) 
6,7-Dioxygenated Coumarins

>  <Natural source>  (556) 
Euphorbia lunulata

>  <Molecular Formula>  (556) 
C18H14O7

>  <InChI-Key>  (556) 
ZHXRTJYHLGJEEE-UHFFFAOYSA-N

>  <Total Molweight>  (556) 
342.302

>  <cLogP>  (556) 
1.4813

>  <cLogS>  (556) 
-2.925

>  <H-Acceptors>  (556) 
7

>  <H-Donors>  (556) 
3

>  <Rotatable Bonds>  (556) 
2

>  <Polar Surface Area>  (556) 
105.45

$$$$
CDB0557
     RDKit          3D

 46 49  0  0  0  0  0  0  0  0999 V2000
   -3.6402   -1.4547   -2.8448 C   0  0  0  0  0  0  0  0  0  0  0  0
   -4.3275   -0.5855   -1.9565 O   0  0  0  0  0  0  0  0  0  0  0  0
   -3.5946    0.0262   -0.9754 C   0  0  0  0  0  0  0  0  0  0  0  0
   -2.2413   -0.2061   -0.7196 C   0  0  0  0  0  0  0  0  0  0  0  0
   -1.5744    0.4660    0.3243 C   0  0  0  0  0  0  0  0  0  0  0  0
   -2.2805    1.3993    1.1050 C   0  0  0  0  0  0  0  0  0  0  0  0
   -3.6309    1.6450    0.8600 C   0  0  0  0  0  0  0  0  0  0  0  0
   -4.2747    0.9484   -0.1729 C   0  0  0  0  0  0  0  0  0  0  0  0
   -5.6093    1.1908   -0.3991 O   0  0  0  0  0  0  0  0  0  0  0  0
   -4.4289    2.5218    1.5515 O   0  0  0  0  0  0  0  0  0  0  0  0
   -3.7946    3.3286    2.5369 C   0  0  0  0  0  0  0  0  0  0  0  0
   -0.1092    0.1890    0.6130 C   0  0  0  0  0  0  0  0  0  0  0  0
    0.1891   -1.2689    1.0139 C   0  0  0  0  0  0  0  0  0  0  0  0
    1.5951   -1.3923    1.3353 O   0  0  0  0  0  0  0  0  0  0  0  0
    2.3910   -0.8155    0.3823 C   0  0  0  0  0  0  0  0  0  0  0  0
    1.9132    0.1107   -0.5501 C   0  0  0  0  0  0  0  0  0  0  0  0
    0.6137    0.5386   -0.5832 O   0  0  0  0  0  0  0  0  0  0  0  0
    2.7702    0.6394   -1.5106 C   0  0  0  0  0  0  0  0  0  0  0  0
    4.1080    0.2513   -1.5044 C   0  0  0  0  0  0  0  0  0  0  0  0
    4.6067   -0.6524   -0.5663 C   0  0  0  0  0  0  0  0  0  0  0  0
    3.7374   -1.1869    0.3863 C   0  0  0  0  0  0  0  0  0  0  0  0
    6.0142   -1.0121   -0.6143 C   0  0  0  0  0  0  0  0  0  0  0  0
    6.7996   -0.4714   -1.5508 C   0  0  0  0  0  0  0  0  0  0  0  0
    6.2961    0.4869   -2.5508 C   0  0  0  0  0  0  0  0  0  0  0  0
    7.0477    0.9640   -3.3929 O   0  0  0  0  0  0  0  0  0  0  0  0
    4.9483    0.8136   -2.4857 O   0  0  0  0  0  0  0  0  0  0  0  0
   -0.5957   -1.7079    2.2580 C   0  0  0  0  0  0  0  0  0  0  0  0
   -0.4205   -3.1094    2.4755 O   0  0  0  0  0  0  0  0  0  0  0  0
   -3.2418   -2.3254   -2.3138 H   0  0  0  0  0  0  0  0  0  0  0  0
   -4.3617   -1.8177   -3.5831 H   0  0  0  0  0  0  0  0  0  0  0  0
   -2.8492   -0.9246   -3.3856 H   0  0  0  0  0  0  0  0  0  0  0  0
   -1.6749   -0.9069   -1.3263 H   0  0  0  0  0  0  0  0  0  0  0  0
   -1.7547    1.9213    1.8983 H   0  0  0  0  0  0  0  0  0  0  0  0
   -5.8624    1.8675    0.2559 H   0  0  0  0  0  0  0  0  0  0  0  0
   -3.0064    3.9472    2.0950 H   0  0  0  0  0  0  0  0  0  0  0  0
   -4.5502    4.0005    2.9552 H   0  0  0  0  0  0  0  0  0  0  0  0
   -3.4050    2.7147    3.3554 H   0  0  0  0  0  0  0  0  0  0  0  0
    0.2417    0.8679    1.4037 H   0  0  0  0  0  0  0  0  0  0  0  0
   -0.0125   -1.9678    0.1903 H   0  0  0  0  0  0  0  0  0  0  0  0
    2.4048    1.3498   -2.2457 H   0  0  0  0  0  0  0  0  0  0  0  0
    4.0888   -1.9009    1.1267 H   0  0  0  0  0  0  0  0  0  0  0  0
    6.4070   -1.7163    0.1110 H   0  0  0  0  0  0  0  0  0  0  0  0
    7.8531   -0.7133   -1.6214 H   0  0  0  0  0  0  0  0  0  0  0  0
   -0.2329   -1.1853    3.1494 H   0  0  0  0  0  0  0  0  0  0  0  0
   -1.6691   -1.5335    2.1473 H   0  0  0  0  0  0  0  0  0  0  0  0
   -0.8826   -3.3336    3.3016 H   0  0  0  0  0  0  0  0  0  0  0  0
  1  2  1  0
  2  3  1  0
  3  4  2  0
  4  5  1  0
  5  6  2  0
  6  7  1  0
  7  8  2  0
  8  9  1  0
  7 10  1  0
 10 11  1  0
  5 12  1  0
 12 13  1  0
 13 14  1  0
 14 15  1  0
 15 16  1  0
 16 17  1  0
 16 18  2  0
 18 19  1  0
 19 20  2  0
 20 21  1  0
 20 22  1  0
 22 23  2  0
 23 24  1  0
 24 25  2  0
 24 26  1  0
 13 27  1  0
 27 28  1  0
  8  3  1  0
 17 12  1  0
 21 15  2  0
 26 19  1  0
  1 29  1  0
  1 30  1  0
  1 31  1  0
  4 32  1  0
  6 33  1  0
  9 34  1  0
 11 35  1  0
 11 36  1  0
 11 37  1  0
 12 38  1  0
 13 39  1  0
 18 40  1  0
 21 41  1  0
 22 42  1  0
 23 43  1  0
 27 44  1  0
 27 45  1  0
 28 46  1  0
M  END
>  <Name>  (557) 
Moluccanin

>  <PubChem ID>  (557) 
14134112

>  <CDB ID>  (557) 
CDB0557

>  <Smiles>  (557) 
COC1=CC(=CC(=C1O)OC)C2C(OC3=C(O2)C=C4C(=C3)C=CC(=O)O4)CO

>  <Chemical class>  (557) 
6,7-Dioxygenated Coumarins

>  <Natural source>  (557) 
Aleurites moluccana

>  <Molecular Formula>  (557) 
C20H18O8

>  <InChI-Key>  (557) 
GBLZBLJGCQTQMB-UHFFFAOYSA-N

>  <Total Molweight>  (557) 
386.355

>  <cLogP>  (557) 
1.9047

>  <cLogS>  (557) 
-3.257

>  <H-Acceptors>  (557) 
8

>  <H-Donors>  (557) 
2

>  <Rotatable Bonds>  (557) 
4

>  <Polar Surface Area>  (557) 
103.68

$$$$
CDB0558
     RDKit          3D

 40 42  0  0  0  0  0  0  0  0999 V2000
    4.0929   -1.4671   -1.3711 C   0  0  0  0  0  0  0  0  0  0  0  0
    5.4136   -1.5178   -1.1717 C   0  0  0  0  0  0  0  0  0  0  0  0
    6.0798   -0.7746   -0.0876 C   0  0  0  0  0  0  0  0  0  0  0  0
    7.2932   -0.8453    0.0669 O   0  0  0  0  0  0  0  0  0  0  0  0
    5.2701   -0.0022    0.7349 O   0  0  0  0  0  0  0  0  0  0  0  0
    3.8766    0.0602    0.5358 C   0  0  0  0  0  0  0  0  0  0  0  0
    3.1450    0.8680    1.4039 C   0  0  0  0  0  0  0  0  0  0  0  0
    1.7639    0.9553    1.2372 C   0  0  0  0  0  0  0  0  0  0  0  0
    1.1248    0.2252    0.2257 C   0  0  0  0  0  0  0  0  0  0  0  0
    1.8842   -0.5595   -0.6512 C   0  0  0  0  0  0  0  0  0  0  0  0
    3.2678   -0.6531   -0.4940 C   0  0  0  0  0  0  0  0  0  0  0  0
   -0.2145    0.2706   -0.0508 O   0  0  0  0  0  0  0  0  0  0  0  0
   -1.0833    0.0937    1.0711 C   0  0  0  0  0  0  0  0  0  0  0  0
   -1.9606    1.3497    1.3051 C   0  0  0  0  0  0  0  0  0  0  0  0
   -3.1088    1.4604    0.2986 C   0  0  0  0  0  0  0  0  0  0  0  0
   -3.8570    0.1332    0.1471 C   0  0  0  0  0  0  0  0  0  0  0  0
   -2.8932   -1.0499   -0.0760 C   0  0  0  0  0  0  0  0  0  0  0  0
   -1.8695   -1.1041    0.9196 O   0  0  0  0  0  0  0  0  0  0  0  0
   -2.3366   -1.1789   -1.5043 C   0  0  0  0  0  0  0  0  0  0  0  0
   -3.4065   -1.3754   -2.4332 O   0  0  0  0  0  0  0  0  0  0  0  0
   -4.8381    0.2797   -0.8917 O   0  0  0  0  0  0  0  0  0  0  0  0
   -2.6451    1.9055   -0.9824 O   0  0  0  0  0  0  0  0  0  0  0  0
   -2.5294    1.3204    2.6289 O   0  0  0  0  0  0  0  0  0  0  0  0
    1.0407    1.7760    2.0585 O   0  0  0  0  0  0  0  0  0  0  0  0
    3.6244   -2.0228   -2.1760 H   0  0  0  0  0  0  0  0  0  0  0  0
    6.0637   -2.1123   -1.8022 H   0  0  0  0  0  0  0  0  0  0  0  0
    3.6613    1.4141    2.1864 H   0  0  0  0  0  0  0  0  0  0  0  0
    1.3798   -1.0973   -1.4500 H   0  0  0  0  0  0  0  0  0  0  0  0
   -0.5155   -0.1078    1.9869 H   0  0  0  0  0  0  0  0  0  0  0  0
   -1.3455    2.2532    1.2314 H   0  0  0  0  0  0  0  0  0  0  0  0
   -3.8212    2.2227    0.6386 H   0  0  0  0  0  0  0  0  0  0  0  0
   -4.4028   -0.0516    1.0808 H   0  0  0  0  0  0  0  0  0  0  0  0
   -3.4990   -1.9538    0.0753 H   0  0  0  0  0  0  0  0  0  0  0  0
   -1.6602   -2.0385   -1.5646 H   0  0  0  0  0  0  0  0  0  0  0  0
   -1.7766   -0.2979   -1.8220 H   0  0  0  0  0  0  0  0  0  0  0  0
   -2.9895   -1.5044   -3.3054 H   0  0  0  0  0  0  0  0  0  0  0  0
   -4.6660   -0.4190   -1.5608 H   0  0  0  0  0  0  0  0  0  0  0  0
   -3.4389    1.8690   -1.5541 H   0  0  0  0  0  0  0  0  0  0  0  0
   -1.7825    1.3419    3.2538 H   0  0  0  0  0  0  0  0  0  0  0  0
    1.6585    2.3345    2.5622 H   0  0  0  0  0  0  0  0  0  0  0  0
  1  2  2  0
  2  3  1  0
  3  4  2  0
  3  5  1  0
  5  6  1  0
  6  7  1  0
  7  8  2  0
  8  9  1  0
  9 10  2  0
 10 11  1  0
  9 12  1  0
 12 13  1  0
 13 14  1  0
 14 15  1  0
 15 16  1  0
 16 17  1  0
 17 18  1  0
 17 19  1  0
 19 20  1  0
 16 21  1  0
 15 22  1  0
 14 23  1  0
  8 24  1  0
 11  1  1  0
 11  6  2  0
 18 13  1  0
  1 25  1  0
  2 26  1  0
  7 27  1  0
 10 28  1  0
 13 29  1  0
 14 30  1  0
 15 31  1  0
 16 32  1  0
 17 33  1  0
 19 34  1  0
 19 35  1  0
 20 36  1  0
 21 37  1  0
 22 38  1  0
 23 39  1  0
 24 40  1  0
M  END
>  <Name>  (558) 
Aesculin

>  <PubChem ID>  (558) 
5281417

>  <CDB ID>  (558) 
CDB0558

>  <Smiles>  (558) 
C1=CC(=O)OC2=CC(=C(C=C21)OC3C(C(C(C(O3)CO)O)O)O)O

>  <Chemical class>  (558) 
6,7-Dioxygenated Coumarins

>  <Natural source>  (558) 
Aesculus hippocastanum

>  <Molecular Formula>  (558) 
C15H16O9

>  <InChI-Key>  (558) 
XHCADAYNFIFUHF-UHFFFAOYSA-N

>  <Total Molweight>  (558) 
340.283

>  <cLogP>  (558) 
-1.1833

>  <cLogS>  (558) 
-1.664

>  <H-Acceptors>  (558) 
9

>  <H-Donors>  (558) 
5

>  <Rotatable Bonds>  (558) 
3

>  <Polar Surface Area>  (558) 
145.91

$$$$
CDB0559
     RDKit          3D

 43 45  0  0  0  0  0  0  0  0999 V2000
    1.5841    3.0263    2.1355 C   0  0  0  0  0  0  0  0  0  0  0  0
    0.9687    1.7769    1.8380 O   0  0  0  0  0  0  0  0  0  0  0  0
    1.6926    0.8955    1.0771 C   0  0  0  0  0  0  0  0  0  0  0  0
    1.1105   -0.3688    0.8781 C   0  0  0  0  0  0  0  0  0  0  0  0
    1.7535   -1.3683    0.1421 C   0  0  0  0  0  0  0  0  0  0  0  0
    2.9879   -1.0991   -0.4425 C   0  0  0  0  0  0  0  0  0  0  0  0
    3.7026   -2.0882   -1.2316 C   0  0  0  0  0  0  0  0  0  0  0  0
    4.8847   -1.7721   -1.7693 C   0  0  0  0  0  0  0  0  0  0  0  0
    5.5049   -0.4470   -1.5949 C   0  0  0  0  0  0  0  0  0  0  0  0
    6.5901   -0.1905   -2.1027 O   0  0  0  0  0  0  0  0  0  0  0  0
    4.8028    0.4803   -0.8359 O   0  0  0  0  0  0  0  0  0  0  0  0
    3.5546    0.1616   -0.2614 C   0  0  0  0  0  0  0  0  0  0  0  0
    2.9285    1.1603    0.4895 C   0  0  0  0  0  0  0  0  0  0  0  0
   -0.0911   -0.6783    1.4621 O   0  0  0  0  0  0  0  0  0  0  0  0
   -1.1902   -0.2474    0.6387 C   0  0  0  0  0  0  0  0  0  0  0  0
   -2.2910    0.2780    1.5919 C   0  0  0  0  0  0  0  0  0  0  0  0
   -3.6662    0.3201    0.9096 C   0  0  0  0  0  0  0  0  0  0  0  0
   -3.5243    0.2745   -0.6158 C   0  0  0  0  0  0  0  0  0  0  0  0
   -2.7355   -0.9805   -1.0410 C   0  0  0  0  0  0  0  0  0  0  0  0
   -1.6636   -1.3400   -0.1469 O   0  0  0  0  0  0  0  0  0  0  0  0
   -2.1430   -0.8167   -2.4473 C   0  0  0  0  0  0  0  0  0  0  0  0
   -1.4269   -1.9973   -2.8147 O   0  0  0  0  0  0  0  0  0  0  0  0
   -4.8211    0.2628   -1.2225 O   0  0  0  0  0  0  0  0  0  0  0  0
   -4.4721   -0.7869    1.3424 O   0  0  0  0  0  0  0  0  0  0  0  0
   -1.9424    1.6094    2.0195 O   0  0  0  0  0  0  0  0  0  0  0  0
    1.7350    3.6156    1.2252 H   0  0  0  0  0  0  0  0  0  0  0  0
    0.9042    3.5857    2.7852 H   0  0  0  0  0  0  0  0  0  0  0  0
    2.5244    2.8853    2.6786 H   0  0  0  0  0  0  0  0  0  0  0  0
    1.2798   -2.3407    0.0365 H   0  0  0  0  0  0  0  0  0  0  0  0
    3.2651   -3.0705   -1.3744 H   0  0  0  0  0  0  0  0  0  0  0  0
    5.4483   -2.4803   -2.3646 H   0  0  0  0  0  0  0  0  0  0  0  0
    3.4287    2.1166    0.5925 H   0  0  0  0  0  0  0  0  0  0  0  0
   -0.8705    0.5648   -0.0314 H   0  0  0  0  0  0  0  0  0  0  0  0
   -2.3389   -0.3409    2.4959 H   0  0  0  0  0  0  0  0  0  0  0  0
   -4.2190    1.2212    1.1997 H   0  0  0  0  0  0  0  0  0  0  0  0
   -3.0084    1.1805   -0.9577 H   0  0  0  0  0  0  0  0  0  0  0  0
   -3.4019   -1.8517   -1.0659 H   0  0  0  0  0  0  0  0  0  0  0  0
   -1.4279    0.0117   -2.4765 H   0  0  0  0  0  0  0  0  0  0  0  0
   -2.9214   -0.6374   -3.1945 H   0  0  0  0  0  0  0  0  0  0  0  0
   -1.0113   -2.3241   -1.9928 H   0  0  0  0  0  0  0  0  0  0  0  0
   -5.2505    1.1144   -1.0192 H   0  0  0  0  0  0  0  0  0  0  0  0
   -5.2064   -0.8652    0.7026 H   0  0  0  0  0  0  0  0  0  0  0  0
   -1.0275    1.5504    2.3676 H   0  0  0  0  0  0  0  0  0  0  0  0
  1  2  1  0
  2  3  1  0
  3  4  1  0
  4  5  2  0
  5  6  1  0
  6  7  1  0
  7  8  2  0
  8  9  1  0
  9 10  2  0
  9 11  1  0
 11 12  1  0
 12 13  1  0
  4 14  1  0
 14 15  1  0
 15 16  1  0
 16 17  1  0
 17 18  1  0
 18 19  1  0
 19 20  1  0
 19 21  1  0
 21 22  1  0
 18 23  1  0
 17 24  1  0
 16 25  1  0
 13  3  2  0
 12  6  2  0
 20 15  1  0
  1 26  1  0
  1 27  1  0
  1 28  1  0
  5 29  1  0
  7 30  1  0
  8 31  1  0
 13 32  1  0
 15 33  1  0
 16 34  1  0
 17 35  1  0
 18 36  1  0
 19 37  1  0
 21 38  1  0
 21 39  1  0
 22 40  1  0
 23 41  1  0
 24 42  1  0
 25 43  1  0
M  END
>  <Name>  (559) 
Magnolioside

>  <PubChem ID>  (559) 
3084335

>  <CDB ID>  (559) 
CDB0559

>  <Smiles>  (559) 
COC1=C(C=C2C=CC(=O)OC2=C1)OC3C(C(C(C(O3)CO)O)O)O

>  <Chemical class>  (559) 
6,7-Dioxygenated Coumarins

>  <Natural source>  (559) 
Magnolia macrophylla

>  <Molecular Formula>  (559) 
C16H18O9

>  <InChI-Key>  (559) 
WBAVLTNIRYDCPM-UHFFFAOYSA-N

>  <Total Molweight>  (559) 
354.31

>  <cLogP>  (559) 
-0.9076

>  <cLogS>  (559) 
-1.978

>  <H-Acceptors>  (559) 
9

>  <H-Donors>  (559) 
4

>  <Rotatable Bonds>  (559) 
4

>  <Polar Surface Area>  (559) 
134.91

$$$$
CDB0560
     RDKit          3D

 72 76  0  0  0  0  0  0  0  0999 V2000
   10.9625    1.1994    2.9007 C   0  0  0  0  0  0  0  0  0  0  0  0
   10.7310    1.5573    1.5427 O   0  0  0  0  0  0  0  0  0  0  0  0
    9.5712    1.0967    0.9767 C   0  0  0  0  0  0  0  0  0  0  0  0
    9.3740    1.4694   -0.3566 C   0  0  0  0  0  0  0  0  0  0  0  0
    8.2443    1.0793   -1.0700 C   0  0  0  0  0  0  0  0  0  0  0  0
    7.2697    0.2854   -0.4534 C   0  0  0  0  0  0  0  0  0  0  0  0
    7.4599   -0.0830    0.8894 C   0  0  0  0  0  0  0  0  0  0  0  0
    8.6019    0.3155    1.5998 C   0  0  0  0  0  0  0  0  0  0  0  0
    6.0520   -0.1410   -1.1711 C   0  0  0  0  0  0  0  0  0  0  0  0
    6.0952   -0.5669   -2.4424 C   0  0  0  0  0  0  0  0  0  0  0  0
    4.8472   -0.9865   -3.0951 C   0  0  0  0  0  0  0  0  0  0  0  0
    4.8248   -1.3859   -4.2540 O   0  0  0  0  0  0  0  0  0  0  0  0
    3.6183   -0.9086   -2.2986 C   0  0  0  0  0  0  0  0  0  0  0  0
    2.3766   -1.2774   -2.8202 C   0  0  0  0  0  0  0  0  0  0  0  0
    1.2245   -1.1927   -2.0360 C   0  0  0  0  0  0  0  0  0  0  0  0
    1.3102   -0.7333   -0.7213 C   0  0  0  0  0  0  0  0  0  0  0  0
    2.5589   -0.3709   -0.2013 C   0  0  0  0  0  0  0  0  0  0  0  0
    3.7087   -0.4564   -0.9881 C   0  0  0  0  0  0  0  0  0  0  0  0
    4.8945   -0.0817   -0.4083 O   0  0  0  0  0  0  0  0  0  0  0  0
    0.2778   -0.6070    0.1643 O   0  0  0  0  0  0  0  0  0  0  0  0
   -1.0658   -0.7790   -0.2994 C   0  0  0  0  0  0  0  0  0  0  0  0
   -1.4755   -2.2685   -0.1801 C   0  0  0  0  0  0  0  0  0  0  0  0
   -2.9938   -2.4091   -0.0099 C   0  0  0  0  0  0  0  0  0  0  0  0
   -3.7341   -1.2416   -0.6640 C   0  0  0  0  0  0  0  0  0  0  0  0
   -3.2772    0.0932   -0.0168 C   0  0  0  0  0  0  0  0  0  0  0  0
   -1.9407   -0.0030    0.5280 O   0  0  0  0  0  0  0  0  0  0  0  0
   -4.1886    0.6049    1.1097 C   0  0  0  0  0  0  0  0  0  0  0  0
   -5.3804    1.1727    0.5667 O   0  0  0  0  0  0  0  0  0  0  0  0
   -6.2197    1.7335    1.5759 C   0  0  0  0  0  0  0  0  0  0  0  0
   -7.3587    2.5224    0.9009 C   0  0  0  0  0  0  0  0  0  0  0  0
   -8.3316    1.5612    0.2070 C   0  0  0  0  0  0  0  0  0  0  0  0
   -8.7791    0.4400    1.1526 C   0  0  0  0  0  0  0  0  0  0  0  0
   -7.5790   -0.2224    1.8220 C   0  0  0  0  0  0  0  0  0  0  0  0
   -6.7380    0.7381    2.4675 O   0  0  0  0  0  0  0  0  0  0  0  0
   -9.6547    1.0053    2.1461 O   0  0  0  0  0  0  0  0  0  0  0  0
   -9.4846    2.3081   -0.2287 O   0  0  0  0  0  0  0  0  0  0  0  0
   -8.0811    3.3041    1.8734 O   0  0  0  0  0  0  0  0  0  0  0  0
   -5.1399   -1.4736   -0.6091 O   0  0  0  0  0  0  0  0  0  0  0  0
   -3.4455   -3.6421   -0.5954 O   0  0  0  0  0  0  0  0  0  0  0  0
   -0.8685   -2.9254    0.9508 O   0  0  0  0  0  0  0  0  0  0  0  0
    2.2129   -1.7366   -4.0998 O   0  0  0  0  0  0  0  0  0  0  0  0
   10.3036    2.2426   -0.9992 O   0  0  0  0  0  0  0  0  0  0  0  0
   11.0437    0.1133    3.0139 H   0  0  0  0  0  0  0  0  0  0  0  0
   11.9182    1.6382    3.2030 H   0  0  0  0  0  0  0  0  0  0  0  0
   10.1857    1.6094    3.5545 H   0  0  0  0  0  0  0  0  0  0  0  0
    8.1362    1.4141   -2.0980 H   0  0  0  0  0  0  0  0  0  0  0  0
    6.7173   -0.6951    1.3989 H   0  0  0  0  0  0  0  0  0  0  0  0
    8.6961   -0.0028    2.6326 H   0  0  0  0  0  0  0  0  0  0  0  0
    7.0013   -0.6342   -3.0309 H   0  0  0  0  0  0  0  0  0  0  0  0
    0.2902   -1.5010   -2.4915 H   0  0  0  0  0  0  0  0  0  0  0  0
    2.6334   -0.0128    0.8235 H   0  0  0  0  0  0  0  0  0  0  0  0
   -1.1801   -0.3989   -1.3221 H   0  0  0  0  0  0  0  0  0  0  0  0
   -1.1202   -2.8195   -1.0570 H   0  0  0  0  0  0  0  0  0  0  0  0
   -3.2708   -2.4688    1.0505 H   0  0  0  0  0  0  0  0  0  0  0  0
   -3.4788   -1.2234   -1.7315 H   0  0  0  0  0  0  0  0  0  0  0  0
   -3.2587    0.8579   -0.8046 H   0  0  0  0  0  0  0  0  0  0  0  0
   -4.4287   -0.2112    1.8012 H   0  0  0  0  0  0  0  0  0  0  0  0
   -3.6561    1.3741    1.6830 H   0  0  0  0  0  0  0  0  0  0  0  0
   -5.6355    2.4315    2.1877 H   0  0  0  0  0  0  0  0  0  0  0  0
   -6.9528    3.2272    0.1659 H   0  0  0  0  0  0  0  0  0  0  0  0
   -7.8546    1.1283   -0.6796 H   0  0  0  0  0  0  0  0  0  0  0  0
   -9.3752   -0.2995    0.6082 H   0  0  0  0  0  0  0  0  0  0  0  0
   -6.9929   -0.7995    1.1019 H   0  0  0  0  0  0  0  0  0  0  0  0
   -7.9215   -0.9108    2.6015 H   0  0  0  0  0  0  0  0  0  0  0  0
   -9.0964    1.6038    2.6894 H   0  0  0  0  0  0  0  0  0  0  0  0
  -10.1879    2.1060    0.4241 H   0  0  0  0  0  0  0  0  0  0  0  0
   -8.7959    3.7328    1.3611 H   0  0  0  0  0  0  0  0  0  0  0  0
   -5.2491   -2.4218   -0.8299 H   0  0  0  0  0  0  0  0  0  0  0  0
   -2.9525   -4.3473   -0.1306 H   0  0  0  0  0  0  0  0  0  0  0  0
   -0.0929   -2.3851    1.2016 H   0  0  0  0  0  0  0  0  0  0  0  0
    3.0947   -1.7473   -4.5390 H   0  0  0  0  0  0  0  0  0  0  0  0
   11.0005    2.4059   -0.3336 H   0  0  0  0  0  0  0  0  0  0  0  0
  1  2  1  0
  2  3  1  0
  3  4  2  0
  4  5  1  0
  5  6  2  0
  6  7  1  0
  7  8  2  0
  6  9  1  0
  9 10  2  0
 10 11  1  0
 11 12  2  0
 11 13  1  0
 13 14  2  0
 14 15  1  0
 15 16  2  0
 16 17  1  0
 17 18  2  0
 18 19  1  0
 16 20  1  0
 20 21  1  0
 21 22  1  0
 22 23  1  0
 23 24  1  0
 24 25  1  0
 25 26  1  0
 25 27  1  0
 27 28  1  0
 28 29  1  0
 29 30  1  0
 30 31  1  0
 31 32  1  0
 32 33  1  0
 33 34  1  0
 32 35  1  0
 31 36  1  0
 30 37  1  0
 24 38  1  0
 23 39  1  0
 22 40  1  0
 14 41  1  0
  4 42  1  0
  8  3  1  0
 19  9  1  0
 18 13  1  0
 26 21  1  0
 34 29  1  0
  1 43  1  0
  1 44  1  0
  1 45  1  0
  5 46  1  0
  7 47  1  0
  8 48  1  0
 10 49  1  0
 15 50  1  0
 17 51  1  0
 21 52  1  0
 22 53  1  0
 23 54  1  0
 24 55  1  0
 25 56  1  0
 27 57  1  0
 27 58  1  0
 29 59  1  0
 30 60  1  0
 31 61  1  0
 32 62  1  0
 33 63  1  0
 33 64  1  0
 35 65  1  0
 36 66  1  0
 37 67  1  0
 38 68  1  0
 39 69  1  0
 40 70  1  0
 41 71  1  0
 42 72  1  0
M  END
>  <Name>  (560) 
Palustroside

>  <PubChem ID>  (560) 
5481245

>  <CDB ID>  (560) 
CDB0560

>  <Smiles>  (560) 
COC1=C(C=C(C=C1)C2=CC(=O)C3=C(C=C(C=C3O2)OC4C(C(C(C(O4)COC5C(C(C(CO5)O)O)O)O)O)O)O)O

>  <Chemical class>  (560) 
6,7-Dioxygenated Coumarins

>  <Natural source>  (560) 
Ledum palustre

>  <Molecular Formula>  (560) 
C27H30O15

>  <InChI-Key>  (560) 
IXWDYBPIGZKUPJ-UHFFFAOYSA-N

>  <Total Molweight>  (560) 
594.52

>  <cLogP>  (560) 
-0.9587

>  <cLogS>  (560) 
-2.589

>  <H-Acceptors>  (560) 
15

>  <H-Donors>  (560) 
8

>  <Rotatable Bonds>  (560) 
7

>  <Polar Surface Area>  (560) 
234.29

$$$$
CDB0561
     RDKit          3D

 38 39  0  0  0  0  0  0  0  0999 V2000
   -3.4375    1.3259   -1.1388 C   0  0  0  0  0  0  0  0  0  0  0  0
   -3.2522    0.1234   -0.1747 C   0  0  0  0  0  0  0  0  0  0  0  0
   -3.9702   -1.0709   -0.8509 C   0  0  0  0  0  0  0  0  0  0  0  0
   -3.9990    0.5166    1.1013 C   0  0  0  0  0  0  0  0  0  0  0  0
   -3.4775    0.9904    2.2431 C   0  0  0  0  0  0  0  0  0  0  0  0
   -1.7683   -0.2294    0.0746 C   0  0  0  0  0  0  0  0  0  0  0  0
   -0.7326    0.4665   -0.4339 C   0  0  0  0  0  0  0  0  0  0  0  0
    0.6507    0.1034   -0.1709 C   0  0  0  0  0  0  0  0  0  0  0  0
    1.7255    0.8255   -0.6968 C   0  0  0  0  0  0  0  0  0  0  0  0
    3.0440    0.4382   -0.4148 C   0  0  0  0  0  0  0  0  0  0  0  0
    3.2863   -0.6871    0.4045 C   0  0  0  0  0  0  0  0  0  0  0  0
    2.2077   -1.4038    0.9267 C   0  0  0  0  0  0  0  0  0  0  0  0
    0.9097   -0.9951    0.6293 C   0  0  0  0  0  0  0  0  0  0  0  0
   -0.1462   -1.7413    1.1730 O   0  0  0  0  0  0  0  0  0  0  0  0
   -1.4820   -1.4223    0.9411 C   0  0  0  0  0  0  0  0  0  0  0  0
   -2.3641   -2.1121    1.4397 O   0  0  0  0  0  0  0  0  0  0  0  0
    4.6048   -0.9965    0.6296 O   0  0  0  0  0  0  0  0  0  0  0  0
    4.8868   -2.1221    1.4494 C   0  0  0  0  0  0  0  0  0  0  0  0
    4.1590    1.0864   -0.8869 O   0  0  0  0  0  0  0  0  0  0  0  0
    3.9659    2.2264   -1.7113 C   0  0  0  0  0  0  0  0  0  0  0  0
   -2.9886    2.2435   -0.7389 H   0  0  0  0  0  0  0  0  0  0  0  0
   -4.4999    1.5430   -1.3100 H   0  0  0  0  0  0  0  0  0  0  0  0
   -2.9913    1.1261   -2.1205 H   0  0  0  0  0  0  0  0  0  0  0  0
   -4.9726   -0.7889   -1.1973 H   0  0  0  0  0  0  0  0  0  0  0  0
   -3.4114   -1.4234   -1.7262 H   0  0  0  0  0  0  0  0  0  0  0  0
   -4.1103   -1.9217   -0.1774 H   0  0  0  0  0  0  0  0  0  0  0  0
   -5.0844    0.4178    1.0581 H   0  0  0  0  0  0  0  0  0  0  0  0
   -4.1242    1.2361    3.0807 H   0  0  0  0  0  0  0  0  0  0  0  0
   -2.4135    1.1451    2.3848 H   0  0  0  0  0  0  0  0  0  0  0  0
   -0.8814    1.3380   -1.0615 H   0  0  0  0  0  0  0  0  0  0  0  0
    1.5187    1.6864   -1.3234 H   0  0  0  0  0  0  0  0  0  0  0  0
    2.3412   -2.2732    1.5599 H   0  0  0  0  0  0  0  0  0  0  0  0
    4.4992   -1.9793    2.4634 H   0  0  0  0  0  0  0  0  0  0  0  0
    5.9744   -2.2199    1.5204 H   0  0  0  0  0  0  0  0  0  0  0  0
    4.4989   -3.0434    1.0024 H   0  0  0  0  0  0  0  0  0  0  0  0
    3.4411    3.0206   -1.1704 H   0  0  0  0  0  0  0  0  0  0  0  0
    3.4409    1.9615   -2.6349 H   0  0  0  0  0  0  0  0  0  0  0  0
    4.9526    2.6097   -1.9887 H   0  0  0  0  0  0  0  0  0  0  0  0
  1  2  1  0
  2  3  1  0
  2  4  1  0
  4  5  2  0
  2  6  1  0
  6  7  2  0
  7  8  1  0
  8  9  1  0
  9 10  2  0
 10 11  1  0
 11 12  2  0
 12 13  1  0
 13 14  1  0
 14 15  1  0
 15 16  2  0
 11 17  1  0
 17 18  1  0
 10 19  1  0
 19 20  1  0
 15  6  1  0
 13  8  2  0
  1 21  1  0
  1 22  1  0
  1 23  1  0
  3 24  1  0
  3 25  1  0
  3 26  1  0
  4 27  1  0
  5 28  1  0
  5 29  1  0
  7 30  1  0
  9 31  1  0
 12 32  1  0
 18 33  1  0
 18 34  1  0
 18 35  1  0
 20 36  1  0
 20 37  1  0
 20 38  1  0
M  END
>  <Name>  (561) 
Rutacultin

>  <PubChem ID>  (561) 
182049

>  <CDB ID>  (561) 
CDB0561

>  <Smiles>  (561) 
CC(C)(C=C)C1=CC2=CC(=C(C=C2OC1=O)OC)OC

>  <Chemical class>  (561) 
6,7-Dioxygenated Coumarins

>  <Natural source>  (561) 
Ruta graveolens

>  <Molecular Formula>  (561) 
C16H18O4

>  <InChI-Key>  (561) 
IPLJDPYEDULBAK-UHFFFAOYSA-N

>  <Total Molweight>  (561) 
274.315

>  <cLogP>  (561) 
3.305

>  <cLogS>  (561) 
-3.346

>  <H-Acceptors>  (561) 
4

>  <H-Donors>  (561) 
0

>  <Rotatable Bonds>  (561) 
4

>  <Polar Surface Area>  (561) 
44.76

$$$$
CDB0562
     RDKit          3D

 29 31  0  0  0  0  0  0  0  0999 V2000
    4.1239    1.0029    0.5079 C   0  0  0  0  0  0  0  0  0  0  0  0
    3.4353    1.4333   -0.6256 C   0  0  0  0  0  0  0  0  0  0  0  0
    2.2208    0.8393   -0.9731 C   0  0  0  0  0  0  0  0  0  0  0  0
    1.6895   -0.1896   -0.1853 C   0  0  0  0  0  0  0  0  0  0  0  0
    2.3862   -0.6174    0.9519 C   0  0  0  0  0  0  0  0  0  0  0  0
    3.6005   -0.0212    1.2964 C   0  0  0  0  0  0  0  0  0  0  0  0
    0.4065   -0.8179   -0.5527 C   0  0  0  0  0  0  0  0  0  0  0  0
    0.4840   -1.9310   -1.2992 C   0  0  0  0  0  0  0  0  0  0  0  0
   -0.6919   -2.6828   -1.7597 C   0  0  0  0  0  0  0  0  0  0  0  0
   -0.5591   -3.6952   -2.4379 O   0  0  0  0  0  0  0  0  0  0  0  0
   -1.9350   -2.1960   -1.3952 O   0  0  0  0  0  0  0  0  0  0  0  0
   -2.0575   -1.0327   -0.6128 C   0  0  0  0  0  0  0  0  0  0  0  0
   -3.3550   -0.6228   -0.3034 C   0  0  0  0  0  0  0  0  0  0  0  0
   -3.5201    0.5228    0.4567 C   0  0  0  0  0  0  0  0  0  0  0  0
   -2.4122    1.2222    0.9284 C   0  0  0  0  0  0  0  0  0  0  0  0
   -1.1210    0.8171    0.6037 C   0  0  0  0  0  0  0  0  0  0  0  0
   -0.9293   -0.3285   -0.1803 C   0  0  0  0  0  0  0  0  0  0  0  0
   -2.5753    2.3043    1.7446 O   0  0  0  0  0  0  0  0  0  0  0  0
   -4.7828    0.9707    0.7133 O   0  0  0  0  0  0  0  0  0  0  0  0
    5.0697    1.4665    0.7774 H   0  0  0  0  0  0  0  0  0  0  0  0
    3.8441    2.2323   -1.2391 H   0  0  0  0  0  0  0  0  0  0  0  0
    1.6923    1.1850   -1.8586 H   0  0  0  0  0  0  0  0  0  0  0  0
    1.9870   -1.4131    1.5768 H   0  0  0  0  0  0  0  0  0  0  0  0
    4.1381   -0.3551    2.1803 H   0  0  0  0  0  0  0  0  0  0  0  0
    1.4339   -2.3501   -1.6154 H   0  0  0  0  0  0  0  0  0  0  0  0
   -4.2146   -1.1780   -0.6644 H   0  0  0  0  0  0  0  0  0  0  0  0
   -0.2785    1.3907    0.9810 H   0  0  0  0  0  0  0  0  0  0  0  0
   -3.3361    2.1004    2.3197 H   0  0  0  0  0  0  0  0  0  0  0  0
   -4.7434    1.9439    0.6645 H   0  0  0  0  0  0  0  0  0  0  0  0
  1  2  2  0
  2  3  1  0
  3  4  2  0
  4  5  1  0
  5  6  2  0
  4  7  1  0
  7  8  2  0
  8  9  1  0
  9 10  2  0
  9 11  1  0
 11 12  1  0
 12 13  1  0
 13 14  2  0
 14 15  1  0
 15 16  2  0
 16 17  1  0
 15 18  1  0
 14 19  1  0
  6  1  1  0
 17  7  1  0
 17 12  2  0
  1 20  1  0
  2 21  1  0
  3 22  1  0
  5 23  1  0
  6 24  1  0
  8 25  1  0
 13 26  1  0
 16 27  1  0
 18 28  1  0
 19 29  1  0
M  END
>  <Name>  (562) 
Nordalbergin

>  <PubChem ID>  (562) 
5320203

>  <CDB ID>  (562) 
CDB0562

>  <Smiles>  (562) 
C1=CC=C(C=C1)C2=CC(=O)OC3=CC(=C(C=C23)O)O

>  <Chemical class>  (562) 
6,7-Dioxygenated Coumarins

>  <Natural source>  (562) 
Dalbergia sissoo

>  <Molecular Formula>  (562) 
C15H10O4

>  <InChI-Key>  (562) 
TZRNJQYCOSMOJS-UHFFFAOYSA-N

>  <Total Molweight>  (562) 
254.24

>  <cLogP>  (562) 
2.3041

>  <cLogS>  (562) 
-2.983

>  <H-Acceptors>  (562) 
4

>  <H-Donors>  (562) 
2

>  <Rotatable Bonds>  (562) 
1

>  <Polar Surface Area>  (562) 
66.76

$$$$
CDB0563
     RDKit          3D

 32 34  0  0  0  0  0  0  0  0999 V2000
    5.1192    1.4466   -0.0579 C   0  0  0  0  0  0  0  0  0  0  0  0
    3.8721    1.8715   -0.5975 O   0  0  0  0  0  0  0  0  0  0  0  0
    2.7747    1.1187   -0.2697 C   0  0  0  0  0  0  0  0  0  0  0  0
    1.5647    1.5643   -0.8170 C   0  0  0  0  0  0  0  0  0  0  0  0
    0.3591    0.9074   -0.5782 C   0  0  0  0  0  0  0  0  0  0  0  0
    0.3410   -0.2322    0.2301 C   0  0  0  0  0  0  0  0  0  0  0  0
   -0.8914   -0.9767    0.5264 C   0  0  0  0  0  0  0  0  0  0  0  0
   -0.7993   -2.0593    1.3150 C   0  0  0  0  0  0  0  0  0  0  0  0
    0.4650   -2.5346    1.8938 C   0  0  0  0  0  0  0  0  0  0  0  0
    0.4911   -3.5304    2.6080 O   0  0  0  0  0  0  0  0  0  0  0  0
    1.6071   -1.8115    1.5957 O   0  0  0  0  0  0  0  0  0  0  0  0
    1.5505   -0.6705    0.7722 C   0  0  0  0  0  0  0  0  0  0  0  0
    2.7641   -0.0150    0.5358 C   0  0  0  0  0  0  0  0  0  0  0  0
   -2.2408   -0.6437    0.0328 C   0  0  0  0  0  0  0  0  0  0  0  0
   -3.0716    0.2087    0.7709 C   0  0  0  0  0  0  0  0  0  0  0  0
   -4.3490    0.5216    0.3031 C   0  0  0  0  0  0  0  0  0  0  0  0
   -4.8020   -0.0148   -0.9017 C   0  0  0  0  0  0  0  0  0  0  0  0
   -3.9797   -0.8640   -1.6414 C   0  0  0  0  0  0  0  0  0  0  0  0
   -2.7018   -1.1790   -1.1765 C   0  0  0  0  0  0  0  0  0  0  0  0
    1.5423    2.6773   -1.6142 O   0  0  0  0  0  0  0  0  0  0  0  0
    5.8881    2.1423   -0.4074 H   0  0  0  0  0  0  0  0  0  0  0  0
    5.1084    1.4837    1.0364 H   0  0  0  0  0  0  0  0  0  0  0  0
    5.3848    0.4474   -0.4184 H   0  0  0  0  0  0  0  0  0  0  0  0
   -0.5491    1.2983   -1.0292 H   0  0  0  0  0  0  0  0  0  0  0  0
   -1.6652   -2.6586    1.5774 H   0  0  0  0  0  0  0  0  0  0  0  0
    3.6642   -0.4130    0.9903 H   0  0  0  0  0  0  0  0  0  0  0  0
   -2.7282    0.6366    1.7100 H   0  0  0  0  0  0  0  0  0  0  0  0
   -4.9901    1.1854    0.8775 H   0  0  0  0  0  0  0  0  0  0  0  0
   -5.7966    0.2308   -1.2656 H   0  0  0  0  0  0  0  0  0  0  0  0
   -4.3333   -1.2795   -2.5816 H   0  0  0  0  0  0  0  0  0  0  0  0
   -2.0684   -1.8393   -1.7646 H   0  0  0  0  0  0  0  0  0  0  0  0
    2.4701    2.9816   -1.6546 H   0  0  0  0  0  0  0  0  0  0  0  0
  1  2  1  0
  2  3  1  0
  3  4  1  0
  4  5  2  0
  5  6  1  0
  6  7  1  0
  7  8  2  0
  8  9  1  0
  9 10  2  0
  9 11  1  0
 11 12  1  0
 12 13  1  0
  7 14  1  0
 14 15  2  0
 15 16  1  0
 16 17  2  0
 17 18  1  0
 18 19  2  0
  4 20  1  0
 13  3  2  0
 12  6  2  0
 19 14  1  0
  1 21  1  0
  1 22  1  0
  1 23  1  0
  5 24  1  0
  8 25  1  0
 13 26  1  0
 15 27  1  0
 16 28  1  0
 17 29  1  0
 18 30  1  0
 19 31  1  0
 20 32  1  0
M  END
>  <Name>  (563) 
Dalbergin

>  <PubChem ID>  (563) 
442768

>  <CDB ID>  (563) 
CDB0563

>  <Smiles>  (563) 
COC1=C(C=C2C(=CC(=O)OC2=C1)C3=CC=CC=C3)O

>  <Chemical class>  (563) 
6,7-Dioxygenated Coumarins

>  <Natural source>  (563) 
Dalbergia sissoo

>  <Molecular Formula>  (563) 
C16H12O4

>  <InChI-Key>  (563) 
AZELSOYQOIUPBZ-UHFFFAOYSA-N

>  <Total Molweight>  (563) 
268.267

>  <cLogP>  (563) 
2.5798

>  <cLogS>  (563) 
-3.297

>  <H-Acceptors>  (563) 
4

>  <H-Donors>  (563) 
1

>  <Rotatable Bonds>  (563) 
2

>  <Polar Surface Area>  (563) 
55.76

$$$$
CDB0564
     RDKit          3D

 32 34  0  0  0  0  0  0  0  0999 V2000
    2.8807    2.2237   -0.8532 C   0  0  0  0  0  0  0  0  0  0  0  0
    3.4628    0.9988   -0.4207 O   0  0  0  0  0  0  0  0  0  0  0  0
    2.5970    0.0033   -0.0460 C   0  0  0  0  0  0  0  0  0  0  0  0
    3.2109   -1.1841    0.3725 C   0  0  0  0  0  0  0  0  0  0  0  0
    2.4686   -2.2814    0.7818 C   0  0  0  0  0  0  0  0  0  0  0  0
    1.0808   -2.1825    0.7700 C   0  0  0  0  0  0  0  0  0  0  0  0
    0.4266   -1.0190    0.3609 C   0  0  0  0  0  0  0  0  0  0  0  0
    1.2012    0.0799   -0.0496 C   0  0  0  0  0  0  0  0  0  0  0  0
   -1.0444   -0.9846    0.3738 C   0  0  0  0  0  0  0  0  0  0  0  0
   -1.6974   -2.0840    0.7823 C   0  0  0  0  0  0  0  0  0  0  0  0
   -1.0209   -3.3149    1.2155 C   0  0  0  0  0  0  0  0  0  0  0  0
   -1.6709   -4.2886    1.5785 O   0  0  0  0  0  0  0  0  0  0  0  0
    0.3625   -3.3157    1.1919 O   0  0  0  0  0  0  0  0  0  0  0  0
   -1.8835    0.1609   -0.0256 C   0  0  0  0  0  0  0  0  0  0  0  0
   -2.2635    1.1208    0.9208 C   0  0  0  0  0  0  0  0  0  0  0  0
   -3.0534    2.2068    0.5400 C   0  0  0  0  0  0  0  0  0  0  0  0
   -3.4670    2.3385   -0.7852 C   0  0  0  0  0  0  0  0  0  0  0  0
   -3.0926    1.3857   -1.7321 C   0  0  0  0  0  0  0  0  0  0  0  0
   -2.3028    0.2984   -1.3548 C   0  0  0  0  0  0  0  0  0  0  0  0
    4.5754   -1.2853    0.3855 O   0  0  0  0  0  0  0  0  0  0  0  0
    2.2998    2.6895   -0.0503 H   0  0  0  0  0  0  0  0  0  0  0  0
    2.2705    2.0752   -1.7503 H   0  0  0  0  0  0  0  0  0  0  0  0
    3.6953    2.9062   -1.1139 H   0  0  0  0  0  0  0  0  0  0  0  0
    2.9621   -3.1929    1.1027 H   0  0  0  0  0  0  0  0  0  0  0  0
    0.6990    0.9872   -0.3688 H   0  0  0  0  0  0  0  0  0  0  0  0
   -2.7810   -2.1337    0.8190 H   0  0  0  0  0  0  0  0  0  0  0  0
   -1.9470    1.0291    1.9575 H   0  0  0  0  0  0  0  0  0  0  0  0
   -3.3483    2.9491    1.2775 H   0  0  0  0  0  0  0  0  0  0  0  0
   -4.0846    3.1835   -1.0799 H   0  0  0  0  0  0  0  0  0  0  0  0
   -3.4181    1.4884   -2.7643 H   0  0  0  0  0  0  0  0  0  0  0  0
   -2.0172   -0.4382   -2.1026 H   0  0  0  0  0  0  0  0  0  0  0  0
    4.8994   -0.4201    0.0673 H   0  0  0  0  0  0  0  0  0  0  0  0
  1  2  1  0
  2  3  1  0
  3  4  1  0
  4  5  2  0
  5  6  1  0
  6  7  2  0
  7  8  1  0
  7  9  1  0
  9 10  2  0
 10 11  1  0
 11 12  2  0
 11 13  1  0
  9 14  1  0
 14 15  2  0
 15 16  1  0
 16 17  2  0
 17 18  1  0
 18 19  2  0
  4 20  1  0
  8  3  2  0
 13  6  1  0
 19 14  1  0
  1 21  1  0
  1 22  1  0
  1 23  1  0
  5 24  1  0
  8 25  1  0
 10 26  1  0
 15 27  1  0
 16 28  1  0
 17 29  1  0
 18 30  1  0
 19 31  1  0
 20 32  1  0
M  END
>  <Name>  (564) 
Isodalbergin

>  <PubChem ID>  (564) 
5318543

>  <CDB ID>  (564) 
CDB0564

>  <Smiles>  (564) 
COC1=C(C=C2C(=C1)C(=CC(=O)O2)C3=CC=CC=C3)O

>  <Chemical class>  (564) 
6,7-Dioxygenated Coumarins

>  <Natural source>  (564) 
Dalbergia sissoo

>  <Molecular Formula>  (564) 
C16H12O4

>  <InChI-Key>  (564) 
JHRWCFFXJIFILI-UHFFFAOYSA-N

>  <Total Molweight>  (564) 
268.267

>  <cLogP>  (564) 
2.5798

>  <cLogS>  (564) 
-3.297

>  <H-Acceptors>  (564) 
4

>  <H-Donors>  (564) 
1

>  <Rotatable Bonds>  (564) 
2

>  <Polar Surface Area>  (564) 
55.76

$$$$
CDB0565
     RDKit          3D

 35 37  0  0  0  0  0  0  0  0999 V2000
    1.7827    2.8828    1.1227 C   0  0  0  0  0  0  0  0  0  0  0  0
    2.6226    1.7953    0.7630 O   0  0  0  0  0  0  0  0  0  0  0  0
    2.0239    0.6433    0.3141 C   0  0  0  0  0  0  0  0  0  0  0  0
    2.8969   -0.4102   -0.0318 C   0  0  0  0  0  0  0  0  0  0  0  0
    2.3686   -1.6154   -0.4970 C   0  0  0  0  0  0  0  0  0  0  0  0
    0.9859   -1.7595   -0.6128 C   0  0  0  0  0  0  0  0  0  0  0  0
    0.1035   -0.7372   -0.2788 C   0  0  0  0  0  0  0  0  0  0  0  0
    0.6371    0.4714    0.1879 C   0  0  0  0  0  0  0  0  0  0  0  0
   -1.3430   -0.9603   -0.4265 C   0  0  0  0  0  0  0  0  0  0  0  0
   -1.7531   -2.1546   -0.8823 C   0  0  0  0  0  0  0  0  0  0  0  0
   -0.8331   -3.2437   -1.2390 C   0  0  0  0  0  0  0  0  0  0  0  0
   -1.2626   -4.3152   -1.6508 O   0  0  0  0  0  0  0  0  0  0  0  0
    0.5209   -2.9999   -1.0880 O   0  0  0  0  0  0  0  0  0  0  0  0
   -2.4026    0.0179   -0.1168 C   0  0  0  0  0  0  0  0  0  0  0  0
   -2.9598    0.0714    1.1671 C   0  0  0  0  0  0  0  0  0  0  0  0
   -3.9592    1.0009    1.4597 C   0  0  0  0  0  0  0  0  0  0  0  0
   -4.4061    1.8793    0.4732 C   0  0  0  0  0  0  0  0  0  0  0  0
   -3.8556    1.8308   -0.8071 C   0  0  0  0  0  0  0  0  0  0  0  0
   -2.8561    0.9026   -1.1033 C   0  0  0  0  0  0  0  0  0  0  0  0
    4.2376   -0.1585    0.1215 O   0  0  0  0  0  0  0  0  0  0  0  0
    5.1466   -1.1965   -0.2171 C   0  0  0  0  0  0  0  0  0  0  0  0
    1.2050    3.2372    0.2627 H   0  0  0  0  0  0  0  0  0  0  0  0
    2.4241    3.7056    1.4531 H   0  0  0  0  0  0  0  0  0  0  0  0
    1.1277    2.6165    1.9587 H   0  0  0  0  0  0  0  0  0  0  0  0
    2.9979   -2.4531   -0.7749 H   0  0  0  0  0  0  0  0  0  0  0  0
   -0.0424    1.2753    0.4512 H   0  0  0  0  0  0  0  0  0  0  0  0
   -2.8031   -2.3933   -1.0176 H   0  0  0  0  0  0  0  0  0  0  0  0
   -2.6184   -0.6073    1.9456 H   0  0  0  0  0  0  0  0  0  0  0  0
   -4.3901    1.0393    2.4571 H   0  0  0  0  0  0  0  0  0  0  0  0
   -5.1857    2.6018    0.7020 H   0  0  0  0  0  0  0  0  0  0  0  0
   -4.2059    2.5156   -1.5755 H   0  0  0  0  0  0  0  0  0  0  0  0
   -2.4334    0.8756   -2.1052 H   0  0  0  0  0  0  0  0  0  0  0  0
    6.1601   -0.8260   -0.0353 H   0  0  0  0  0  0  0  0  0  0  0  0
    5.0730   -1.4554   -1.2784 H   0  0  0  0  0  0  0  0  0  0  0  0
    4.9958   -2.0762    0.4173 H   0  0  0  0  0  0  0  0  0  0  0  0
  1  2  1  0
  2  3  1  0
  3  4  1  0
  4  5  2  0
  5  6  1  0
  6  7  2  0
  7  8  1  0
  7  9  1  0
  9 10  2  0
 10 11  1  0
 11 12  2  0
 11 13  1  0
  9 14  1  0
 14 15  2  0
 15 16  1  0
 16 17  2  0
 17 18  1  0
 18 19  2  0
  4 20  1  0
 20 21  1  0
  8  3  2  0
 13  6  1  0
 19 14  1  0
  1 22  1  0
  1 23  1  0
  1 24  1  0
  5 25  1  0
  8 26  1  0
 10 27  1  0
 15 28  1  0
 16 29  1  0
 17 30  1  0
 18 31  1  0
 19 32  1  0
 21 33  1  0
 21 34  1  0
 21 35  1  0
M  END
>  <Name>  (565) 
Methyldalbergin

>  <PubChem ID>  (565) 
1235191

>  <CDB ID>  (565) 
CDB0565

>  <Smiles>  (565) 
COC1=C(C=C2C(=C1)C(=CC(=O)O2)C3=CC=CC=C3)OC

>  <Chemical class>  (565) 
6,7-Dioxygenated Coumarins

>  <Natural source>  (565) 
Dalbergia sissoo

>  <Molecular Formula>  (565) 
C17H14O4

>  <InChI-Key>  (565) 
BUZZVHCRHOIKOC-UHFFFAOYSA-N

>  <Total Molweight>  (565) 
282.294

>  <cLogP>  (565) 
2.8555

>  <cLogS>  (565) 
-3.611

>  <H-Acceptors>  (565) 
4

>  <H-Donors>  (565) 
0

>  <Rotatable Bonds>  (565) 
3

>  <Polar Surface Area>  (565) 
44.76

$$$$
CDB0566
     RDKit          3D

 33 35  0  0  0  0  0  0  0  0999 V2000
    5.2619   -1.5423    0.3300 C   0  0  0  0  0  0  0  0  0  0  0  0
    3.9606   -2.0430    0.6179 O   0  0  0  0  0  0  0  0  0  0  0  0
    2.9092   -1.2060    0.3488 C   0  0  0  0  0  0  0  0  0  0  0  0
    1.6433   -1.7326    0.6355 C   0  0  0  0  0  0  0  0  0  0  0  0
    0.4740   -1.0066    0.4172 C   0  0  0  0  0  0  0  0  0  0  0  0
    0.5505    0.2894   -0.0996 C   0  0  0  0  0  0  0  0  0  0  0  0
   -0.6389    1.1157   -0.3543 C   0  0  0  0  0  0  0  0  0  0  0  0
   -0.4537    2.3447   -0.8623 C   0  0  0  0  0  0  0  0  0  0  0  0
    0.8695    2.9025   -1.1744 C   0  0  0  0  0  0  0  0  0  0  0  0
    0.9794    4.0317   -1.6382 O   0  0  0  0  0  0  0  0  0  0  0  0
    1.9687    2.1020   -0.9160 O   0  0  0  0  0  0  0  0  0  0  0  0
    1.8153    0.8065   -0.3856 C   0  0  0  0  0  0  0  0  0  0  0  0
    2.9930    0.0817   -0.1698 C   0  0  0  0  0  0  0  0  0  0  0  0
   -2.0365    0.7251   -0.0867 C   0  0  0  0  0  0  0  0  0  0  0  0
   -2.8549    0.2640   -1.1244 C   0  0  0  0  0  0  0  0  0  0  0  0
   -4.1710   -0.0992   -0.8570 C   0  0  0  0  0  0  0  0  0  0  0  0
   -4.6910   -0.0116    0.4309 C   0  0  0  0  0  0  0  0  0  0  0  0
   -3.8787    0.4473    1.4682 C   0  0  0  0  0  0  0  0  0  0  0  0
   -2.5558    0.8154    1.2119 C   0  0  0  0  0  0  0  0  0  0  0  0
   -4.9299   -0.5427   -1.8996 O   0  0  0  0  0  0  0  0  0  0  0  0
    1.5274   -2.9978    1.1463 O   0  0  0  0  0  0  0  0  0  0  0  0
    5.3753   -1.3299   -0.7382 H   0  0  0  0  0  0  0  0  0  0  0  0
    5.4872   -0.6587    0.9363 H   0  0  0  0  0  0  0  0  0  0  0  0
    5.9845   -2.3205    0.5936 H   0  0  0  0  0  0  0  0  0  0  0  0
   -0.4807   -1.4689    0.6530 H   0  0  0  0  0  0  0  0  0  0  0  0
   -1.2816    3.0143   -1.0730 H   0  0  0  0  0  0  0  0  0  0  0  0
    3.9400    0.5484   -0.4154 H   0  0  0  0  0  0  0  0  0  0  0  0
   -2.4740    0.1803   -2.1389 H   0  0  0  0  0  0  0  0  0  0  0  0
   -5.7170   -0.2943    0.6447 H   0  0  0  0  0  0  0  0  0  0  0  0
   -4.2743    0.5182    2.4785 H   0  0  0  0  0  0  0  0  0  0  0  0
   -1.9329    1.1698    2.0305 H   0  0  0  0  0  0  0  0  0  0  0  0
   -5.8130   -0.7726   -1.5669 H   0  0  0  0  0  0  0  0  0  0  0  0
    2.4439   -3.3301    1.2157 H   0  0  0  0  0  0  0  0  0  0  0  0
  1  2  1  0
  2  3  1  0
  3  4  1  0
  4  5  2  0
  5  6  1  0
  6  7  1  0
  7  8  2  0
  8  9  1  0
  9 10  2  0
  9 11  1  0
 11 12  1  0
 12 13  1  0
  7 14  1  0
 14 15  1  0
 15 16  2  0
 16 17  1  0
 17 18  2  0
 18 19  1  0
 16 20  1  0
  4 21  1  0
 13  3  2  0
 12  6  2  0
 19 14  2  0
  1 22  1  0
  1 23  1  0
  1 24  1  0
  5 25  1  0
  8 26  1  0
 13 27  1  0
 15 28  1  0
 17 29  1  0
 18 30  1  0
 19 31  1  0
 20 32  1  0
 21 33  1  0
M  END
>  <Name>  (566) 
Stevenin

>  <PubChem ID>  (566) 
5321501

>  <CDB ID>  (566) 
CDB0566

>  <Smiles>  (566) 
COC1=C(C=C2C(=CC(=O)OC2=C1)C3=CC(=CC=C3)O)O

>  <Chemical class>  (566) 
6,7-Dioxygenated Coumarins

>  <Natural source>  (566) 
Dalbergia stevensonii

>  <Molecular Formula>  (566) 
C16H12O5

>  <InChI-Key>  (566) 
MYVNFPJTNYAPDH-UHFFFAOYSA-N

>  <Total Molweight>  (566) 
284.266

>  <cLogP>  (566) 
2.2341

>  <cLogS>  (566) 
-3.001

>  <H-Acceptors>  (566) 
5

>  <H-Donors>  (566) 
2

>  <Rotatable Bonds>  (566) 
2

>  <Polar Surface Area>  (566) 
75.99

$$$$
CDB0567
     RDKit          3D

 33 35  0  0  0  0  0  0  0  0999 V2000
   -5.2716   -1.5913    0.0654 C   0  0  0  0  0  0  0  0  0  0  0  0
   -3.9650   -2.1291    0.2403 O   0  0  0  0  0  0  0  0  0  0  0  0
   -2.9200   -1.2504    0.1216 C   0  0  0  0  0  0  0  0  0  0  0  0
   -1.6497   -1.8111    0.3053 C   0  0  0  0  0  0  0  0  0  0  0  0
   -0.4858   -1.0497    0.2172 C   0  0  0  0  0  0  0  0  0  0  0  0
   -0.5725    0.3160   -0.0653 C   0  0  0  0  0  0  0  0  0  0  0  0
    0.6108    1.1818   -0.1752 C   0  0  0  0  0  0  0  0  0  0  0  0
    0.4158    2.4828   -0.4434 C   0  0  0  0  0  0  0  0  0  0  0  0
   -0.9131    3.0816   -0.6311 C   0  0  0  0  0  0  0  0  0  0  0  0
   -1.0321    4.2774   -0.8724 O   0  0  0  0  0  0  0  0  0  0  0  0
   -2.0057    2.2385   -0.5265 O   0  0  0  0  0  0  0  0  0  0  0  0
   -1.8420    0.8683   -0.2451 C   0  0  0  0  0  0  0  0  0  0  0  0
   -3.0142    0.1090   -0.1569 C   0  0  0  0  0  0  0  0  0  0  0  0
    2.0138    0.7499   -0.0291 C   0  0  0  0  0  0  0  0  0  0  0  0
    2.6913    0.1798   -1.1161 C   0  0  0  0  0  0  0  0  0  0  0  0
    4.0204   -0.2295   -0.9826 C   0  0  0  0  0  0  0  0  0  0  0  0
    4.6665   -0.0654    0.2388 C   0  0  0  0  0  0  0  0  0  0  0  0
    4.0076    0.4986    1.3252 C   0  0  0  0  0  0  0  0  0  0  0  0
    2.6795    0.9073    1.1935 C   0  0  0  0  0  0  0  0  0  0  0  0
    5.9623   -0.4505    0.4139 O   0  0  0  0  0  0  0  0  0  0  0  0
   -1.5235   -3.1463    0.5810 O   0  0  0  0  0  0  0  0  0  0  0  0
   -5.9882   -2.4086    0.1915 H   0  0  0  0  0  0  0  0  0  0  0  0
   -5.3998   -1.1881   -0.9445 H   0  0  0  0  0  0  0  0  0  0  0  0
   -5.4915   -0.8346    0.8257 H   0  0  0  0  0  0  0  0  0  0  0  0
    0.4722   -1.5383    0.3733 H   0  0  0  0  0  0  0  0  0  0  0  0
    1.2393    3.1827   -0.5433 H   0  0  0  0  0  0  0  0  0  0  0  0
   -3.9655    0.6061   -0.3085 H   0  0  0  0  0  0  0  0  0  0  0  0
    2.1865    0.0488   -2.0708 H   0  0  0  0  0  0  0  0  0  0  0  0
    4.5285   -0.6703   -1.8343 H   0  0  0  0  0  0  0  0  0  0  0  0
    4.5257    0.6177    2.2727 H   0  0  0  0  0  0  0  0  0  0  0  0
    2.1698    1.3425    2.0499 H   0  0  0  0  0  0  0  0  0  0  0  0
    6.2881   -0.8357   -0.4160 H   0  0  0  0  0  0  0  0  0  0  0  0
   -2.4380   -3.4902    0.6045 H   0  0  0  0  0  0  0  0  0  0  0  0
  1  2  1  0
  2  3  1  0
  3  4  1  0
  4  5  2  0
  5  6  1  0
  6  7  1  0
  7  8  2  0
  8  9  1  0
  9 10  2  0
  9 11  1  0
 11 12  1  0
 12 13  1  0
  7 14  1  0
 14 15  1  0
 15 16  2  0
 16 17  1  0
 17 18  2  0
 18 19  1  0
 17 20  1  0
  4 21  1  0
 13  3  2  0
 12  6  2  0
 19 14  2  0
  1 22  1  0
  1 23  1  0
  1 24  1  0
  5 25  1  0
  8 26  1  0
 13 27  1  0
 15 28  1  0
 16 29  1  0
 18 30  1  0
 19 31  1  0
 20 32  1  0
 21 33  1  0
M  END
>  <Name>  (567) 
Melanettin

>  <PubChem ID>  (567) 
442808

>  <CDB ID>  (567) 
CDB0567

>  <Smiles>  (567) 
COC1=C(C=C2C(=CC(=O)OC2=C1)C3=CC=C(C=C3)O)O

>  <Chemical class>  (567) 
6,7-Dioxygenated Coumarins

>  <Natural source>  (567) 
Dalbergia melanoxylon

>  <Molecular Formula>  (567) 
C16H12O5

>  <InChI-Key>  (567) 
HUGUGFBIYQBLCS-UHFFFAOYSA-N

>  <Total Molweight>  (567) 
284.266

>  <cLogP>  (567) 
2.2341

>  <cLogS>  (567) 
-3.001

>  <H-Acceptors>  (567) 
5

>  <H-Donors>  (567) 
2

>  <Rotatable Bonds>  (567) 
2

>  <Polar Surface Area>  (567) 
75.99

$$$$
CDB0568
     RDKit          3D

 37 39  0  0  0  0  0  0  0  0999 V2000
   -5.9749    1.4977   -0.4236 C   0  0  0  0  0  0  0  0  0  0  0  0
   -5.2034    0.9980    0.6589 O   0  0  0  0  0  0  0  0  0  0  0  0
   -3.9715    0.4746    0.3689 C   0  0  0  0  0  0  0  0  0  0  0  0
   -3.2247    0.0052    1.4596 C   0  0  0  0  0  0  0  0  0  0  0  0
   -1.9559   -0.5499    1.2834 C   0  0  0  0  0  0  0  0  0  0  0  0
   -1.4125   -0.6422   -0.0024 C   0  0  0  0  0  0  0  0  0  0  0  0
   -2.1495   -0.1753   -1.0968 C   0  0  0  0  0  0  0  0  0  0  0  0
   -3.4213    0.3795   -0.9118 C   0  0  0  0  0  0  0  0  0  0  0  0
   -0.0739   -1.2295   -0.2020 C   0  0  0  0  0  0  0  0  0  0  0  0
   -0.0399   -2.5318   -0.5269 C   0  0  0  0  0  0  0  0  0  0  0  0
    1.2054   -3.2787   -0.7539 C   0  0  0  0  0  0  0  0  0  0  0  0
    1.1763   -4.4670   -1.0522 O   0  0  0  0  0  0  0  0  0  0  0  0
    2.3932   -2.5824   -0.6129 O   0  0  0  0  0  0  0  0  0  0  0  0
    2.3987   -1.2155   -0.2741 C   0  0  0  0  0  0  0  0  0  0  0  0
    3.6552   -0.6094   -0.1624 C   0  0  0  0  0  0  0  0  0  0  0  0
    3.7282    0.7398    0.1669 C   0  0  0  0  0  0  0  0  0  0  0  0
    2.5359    1.4450    0.3744 C   0  0  0  0  0  0  0  0  0  0  0  0
    1.2874    0.8363    0.2614 C   0  0  0  0  0  0  0  0  0  0  0  0
    1.2064   -0.5194   -0.0666 C   0  0  0  0  0  0  0  0  0  0  0  0
    2.5738    2.7745    0.6991 O   0  0  0  0  0  0  0  0  0  0  0  0
    4.8727    1.4787    0.3149 O   0  0  0  0  0  0  0  0  0  0  0  0
    6.1038    0.7937    0.1088 C   0  0  0  0  0  0  0  0  0  0  0  0
   -3.7560    0.0962    2.7196 O   0  0  0  0  0  0  0  0  0  0  0  0
   -5.4656    2.3294   -0.9215 H   0  0  0  0  0  0  0  0  0  0  0  0
   -6.9154    1.8806   -0.0157 H   0  0  0  0  0  0  0  0  0  0  0  0
   -6.2207    0.7016   -1.1340 H   0  0  0  0  0  0  0  0  0  0  0  0
   -1.3872   -0.9089    2.1362 H   0  0  0  0  0  0  0  0  0  0  0  0
   -1.7390   -0.2352   -2.1029 H   0  0  0  0  0  0  0  0  0  0  0  0
   -3.9547    0.7288   -1.7896 H   0  0  0  0  0  0  0  0  0  0  0  0
   -0.9423   -3.1241   -0.6415 H   0  0  0  0  0  0  0  0  0  0  0  0
    4.5385   -1.2129   -0.3375 H   0  0  0  0  0  0  0  0  0  0  0  0
    0.3968    1.4355    0.4310 H   0  0  0  0  0  0  0  0  0  0  0  0
    3.5231    3.0053    0.7259 H   0  0  0  0  0  0  0  0  0  0  0  0
    6.9149    1.5122    0.2612 H   0  0  0  0  0  0  0  0  0  0  0  0
    6.1790    0.4183   -0.9170 H   0  0  0  0  0  0  0  0  0  0  0  0
    6.2322   -0.0138    0.8372 H   0  0  0  0  0  0  0  0  0  0  0  0
   -3.1129   -0.2349    3.3649 H   0  0  0  0  0  0  0  0  0  0  0  0
  1  2  1  0
  2  3  1  0
  3  4  2  0
  4  5  1  0
  5  6  2  0
  6  7  1  0
  7  8  2  0
  6  9  1  0
  9 10  2  0
 10 11  1  0
 11 12  2  0
 11 13  1  0
 13 14  1  0
 14 15  1  0
 15 16  2  0
 16 17  1  0
 17 18  2  0
 18 19  1  0
 17 20  1  0
 16 21  1  0
 21 22  1  0
  4 23  1  0
  8  3  1  0
 19  9  1  0
 19 14  2  0
  1 24  1  0
  1 25  1  0
  1 26  1  0
  5 27  1  0
  7 28  1  0
  8 29  1  0
 10 30  1  0
 15 31  1  0
 18 32  1  0
 20 33  1  0
 22 34  1  0
 22 35  1  0
 22 36  1  0
 23 37  1  0
M  END
>  <Name>  (568) 
Melannein

>  <PubChem ID>  (568) 
15560441

>  <CDB ID>  (568) 
CDB0568

>  <Smiles>  (568) 
COC1=C(C=C(C=C1)C2=CC(=O)OC3=CC(=C(C=C23)O)OC)O

>  <Chemical class>  (568) 
6,7-Dioxygenated Coumarins

>  <Natural source>  (568) 
Dalbergia baroni

>  <Molecular Formula>  (568) 
C17H14O6

>  <InChI-Key>  (568) 
XZOXEPMJIGHPMG-UHFFFAOYSA-N

>  <Total Molweight>  (568) 
314.292

>  <cLogP>  (568) 
2.1641

>  <cLogS>  (568) 
-3.019

>  <H-Acceptors>  (568) 
6

>  <H-Donors>  (568) 
2

>  <Rotatable Bonds>  (568) 
3

>  <Polar Surface Area>  (568) 
85.22

$$$$
CDB0569
     RDKit          3D

 32 33  0  0  0  0  0  0  0  0999 V2000
    2.2039   -0.8235    1.1875 C   0  0  0  0  0  0  0  0  0  0  0  0
    1.5759   -0.2675   -0.1180 C   0  0  0  0  0  0  0  0  0  0  0  0
    1.7529   -1.3962   -1.1645 C   0  0  0  0  0  0  0  0  0  0  0  0
    2.3463    0.9111   -0.7333 C   0  0  0  0  0  0  0  0  0  0  0  0
    3.5010    1.4480   -0.3125 C   0  0  0  0  0  0  0  0  0  0  0  0
    0.1176    0.1653    0.1886 C   0  0  0  0  0  0  0  0  0  0  0  0
   -1.0437   -0.4465   -0.3370 C   0  0  0  0  0  0  0  0  0  0  0  0
   -2.3493   -0.0086   -0.0312 C   0  0  0  0  0  0  0  0  0  0  0  0
   -2.5384    1.0717    0.8287 C   0  0  0  0  0  0  0  0  0  0  0  0
   -1.4243    1.6892    1.3695 C   0  0  0  0  0  0  0  0  0  0  0  0
   -0.1300    1.2470    1.0612 C   0  0  0  0  0  0  0  0  0  0  0  0
    0.9015    1.9261    1.6602 O   0  0  0  0  0  0  0  0  0  0  0  0
   -1.5383    2.7530    2.2258 O   0  0  0  0  0  0  0  0  0  0  0  0
   -3.4999   -0.6877   -0.6142 C   0  0  0  0  0  0  0  0  0  0  0  0
   -3.3236   -1.7277   -1.4322 C   0  0  0  0  0  0  0  0  0  0  0  0
   -1.9874   -2.2288   -1.7768 C   0  0  0  0  0  0  0  0  0  0  0  0
   -1.8464   -3.1866   -2.5269 O   0  0  0  0  0  0  0  0  0  0  0  0
   -0.9161   -1.5582   -1.2068 O   0  0  0  0  0  0  0  0  0  0  0  0
    1.6011   -1.6481    1.5881 H   0  0  0  0  0  0  0  0  0  0  0  0
    2.2870   -0.0731    1.9796 H   0  0  0  0  0  0  0  0  0  0  0  0
    3.2138   -1.2147    1.0133 H   0  0  0  0  0  0  0  0  0  0  0  0
    1.3134   -1.1344   -2.1345 H   0  0  0  0  0  0  0  0  0  0  0  0
    2.8161   -1.6015   -1.3494 H   0  0  0  0  0  0  0  0  0  0  0  0
    1.3168   -2.3419   -0.8224 H   0  0  0  0  0  0  0  0  0  0  0  0
    1.8844    1.3510   -1.6175 H   0  0  0  0  0  0  0  0  0  0  0  0
    4.0262    1.0840    0.5633 H   0  0  0  0  0  0  0  0  0  0  0  0
    3.9403    2.2894   -0.8390 H   0  0  0  0  0  0  0  0  0  0  0  0
   -3.5381    1.4170    1.0701 H   0  0  0  0  0  0  0  0  0  0  0  0
    0.4749    2.6312    2.1859 H   0  0  0  0  0  0  0  0  0  0  0  0
   -2.4824    2.9518    2.3504 H   0  0  0  0  0  0  0  0  0  0  0  0
   -4.4983   -0.3373   -0.3748 H   0  0  0  0  0  0  0  0  0  0  0  0
   -4.1570   -2.2536   -1.8813 H   0  0  0  0  0  0  0  0  0  0  0  0
  1  2  1  0
  2  3  1  0
  2  4  1  0
  4  5  2  0
  2  6  1  0
  6  7  1  0
  7  8  2  0
  8  9  1  0
  9 10  2  0
 10 11  1  0
 11 12  1  0
 10 13  1  0
  8 14  1  0
 14 15  2  0
 15 16  1  0
 16 17  2  0
 16 18  1  0
 11  6  2  0
 18  7  1  0
  1 19  1  0
  1 20  1  0
  1 21  1  0
  3 22  1  0
  3 23  1  0
  3 24  1  0
  4 25  1  0
  5 26  1  0
  5 27  1  0
  9 28  1  0
 12 29  1  0
 13 30  1  0
 14 31  1  0
 15 32  1  0
M  END
>  <Name>  (569) 
Obliquetol

>  <PubChem ID>  (569) 
12313646

>  <CDB ID>  (569) 
CDB0569

>  <Smiles>  (569) 
CC(C)(C=C)C1=C2C(=CC(=C1O)O)C=CC(=O)O2

>  <Chemical class>  (569) 
6,7-Dioxygenated Coumarins

>  <Natural source>  (569) 
Ptaeroxylon obliquum

>  <Molecular Formula>  (569) 
C14H14O4

>  <InChI-Key>  (569) 
GMPOVXJFTJIVCI-UHFFFAOYSA-N

>  <Total Molweight>  (569) 
246.261

>  <cLogP>  (569) 
2.6568

>  <cLogS>  (569) 
-3.147

>  <H-Acceptors>  (569) 
4

>  <H-Donors>  (569) 
2

>  <Rotatable Bonds>  (569) 
2

>  <Polar Surface Area>  (569) 
66.76

$$$$
CDB0570
     RDKit          3D

 35 36  0  0  0  0  0  0  0  0999 V2000
    2.4063   -1.9031   -0.6620 C   0  0  0  0  0  0  0  0  0  0  0  0
    1.8939   -0.5367   -0.1411 C   0  0  0  0  0  0  0  0  0  0  0  0
    2.4651   -0.4033    1.2946 C   0  0  0  0  0  0  0  0  0  0  0  0
    2.4787    0.4690   -1.1451 C   0  0  0  0  0  0  0  0  0  0  0  0
    3.4221    1.3970   -0.9269 C   0  0  0  0  0  0  0  0  0  0  0  0
    0.3545   -0.3655   -0.0665 C   0  0  0  0  0  0  0  0  0  0  0  0
   -0.2156    0.8909    0.2616 C   0  0  0  0  0  0  0  0  0  0  0  0
   -1.5985    1.1163    0.3372 C   0  0  0  0  0  0  0  0  0  0  0  0
   -2.4809    0.0661    0.0906 C   0  0  0  0  0  0  0  0  0  0  0  0
   -1.9754   -1.1917   -0.2205 C   0  0  0  0  0  0  0  0  0  0  0  0
   -0.5774   -1.3939   -0.2920 C   0  0  0  0  0  0  0  0  0  0  0  0
   -0.1700   -2.6702   -0.5875 O   0  0  0  0  0  0  0  0  0  0  0  0
   -2.7274   -2.3148   -0.4759 O   0  0  0  0  0  0  0  0  0  0  0  0
   -4.1423   -2.1706   -0.4217 C   0  0  0  0  0  0  0  0  0  0  0  0
   -2.0987    2.4432    0.6716 C   0  0  0  0  0  0  0  0  0  0  0  0
   -1.2441    3.4406    0.9128 C   0  0  0  0  0  0  0  0  0  0  0  0
    0.2125    3.2535    0.8581 C   0  0  0  0  0  0  0  0  0  0  0  0
    0.9751    4.1829    1.0938 O   0  0  0  0  0  0  0  0  0  0  0  0
    0.6547    1.9810    0.5346 O   0  0  0  0  0  0  0  0  0  0  0  0
    3.5016   -1.9100   -0.7445 H   0  0  0  0  0  0  0  0  0  0  0  0
    2.1491   -2.7227    0.0186 H   0  0  0  0  0  0  0  0  0  0  0  0
    2.0143   -2.1383   -1.6590 H   0  0  0  0  0  0  0  0  0  0  0  0
    3.5484   -0.5744    1.3134 H   0  0  0  0  0  0  0  0  0  0  0  0
    2.2896    0.5817    1.7380 H   0  0  0  0  0  0  0  0  0  0  0  0
    2.0078   -1.1417    1.9651 H   0  0  0  0  0  0  0  0  0  0  0  0
    2.0681    0.4016   -2.1534 H   0  0  0  0  0  0  0  0  0  0  0  0
    3.8832    1.5445    0.0436 H   0  0  0  0  0  0  0  0  0  0  0  0
    3.7463    2.0523   -1.7296 H   0  0  0  0  0  0  0  0  0  0  0  0
   -3.5482    0.2474    0.1506 H   0  0  0  0  0  0  0  0  0  0  0  0
   -0.9889   -3.1918   -0.6993 H   0  0  0  0  0  0  0  0  0  0  0  0
   -4.5857   -3.1450   -0.6487 H   0  0  0  0  0  0  0  0  0  0  0  0
   -4.4953   -1.4601   -1.1763 H   0  0  0  0  0  0  0  0  0  0  0  0
   -4.4707   -1.8808    0.5818 H   0  0  0  0  0  0  0  0  0  0  0  0
   -3.1695    2.6085    0.7203 H   0  0  0  0  0  0  0  0  0  0  0  0
   -1.5825    4.4382    1.1636 H   0  0  0  0  0  0  0  0  0  0  0  0
  1  2  1  0
  2  3  1  0
  2  4  1  0
  4  5  2  0
  2  6  1  0
  6  7  1  0
  7  8  2  0
  8  9  1  0
  9 10  2  0
 10 11  1  0
 11 12  1  0
 10 13  1  0
 13 14  1  0
  8 15  1  0
 15 16  2  0
 16 17  1  0
 17 18  2  0
 17 19  1  0
 11  6  2  0
 19  7  1  0
  1 20  1  0
  1 21  1  0
  1 22  1  0
  3 23  1  0
  3 24  1  0
  3 25  1  0
  4 26  1  0
  5 27  1  0
  5 28  1  0
  9 29  1  0
 12 30  1  0
 14 31  1  0
 14 32  1  0
 14 33  1  0
 15 34  1  0
 16 35  1  0
M  END
>  <Name>  (570) 
Obliquetin

>  <PubChem ID>  (570) 
12313645

>  <CDB ID>  (570) 
CDB0570

>  <Smiles>  (570) 
CC(C)(C=C)C1=C2C(=CC(=C1O)OC)C=CC(=O)O2

>  <Chemical class>  (570) 
6,7-Dioxygenated Coumarins

>  <Natural source>  (570) 
Ptaeroxylon obliquum

>  <Molecular Formula>  (570) 
C15H16O4

>  <InChI-Key>  (570) 
QTONOXMAHAVZIY-UHFFFAOYSA-N

>  <Total Molweight>  (570) 
260.288

>  <cLogP>  (570) 
2.9325

>  <cLogS>  (570) 
-3.461

>  <H-Acceptors>  (570) 
4

>  <H-Donors>  (570) 
1

>  <Rotatable Bonds>  (570) 
3

>  <Polar Surface Area>  (570) 
55.76

$$$$
CDB0571
     RDKit          3D

 35 36  0  0  0  0  0  0  0  0999 V2000
    3.3409    1.8883   -0.1457 C   0  0  0  0  0  0  0  0  0  0  0  0
    3.2559    0.3919   -0.0199 C   0  0  0  0  0  0  0  0  0  0  0  0
    2.3266   -0.2815    0.6873 C   0  0  0  0  0  0  0  0  0  0  0  0
    1.1913    0.2699    1.5096 C   0  0  0  0  0  0  0  0  0  0  0  0
   -0.1557   -0.0593    0.9123 C   0  0  0  0  0  0  0  0  0  0  0  0
   -0.7514    0.7683   -0.0492 C   0  0  0  0  0  0  0  0  0  0  0  0
   -1.9843    0.4622   -0.6345 C   0  0  0  0  0  0  0  0  0  0  0  0
   -2.6559   -0.7062   -0.2579 C   0  0  0  0  0  0  0  0  0  0  0  0
   -2.0889   -1.5567    0.6919 C   0  0  0  0  0  0  0  0  0  0  0  0
   -0.8466   -1.2243    1.2608 C   0  0  0  0  0  0  0  0  0  0  0  0
   -0.2989   -2.0787    2.1852 O   0  0  0  0  0  0  0  0  0  0  0  0
   -2.6318   -2.7323    1.1480 O   0  0  0  0  0  0  0  0  0  0  0  0
   -3.8879   -3.1151    0.5995 C   0  0  0  0  0  0  0  0  0  0  0  0
   -2.5408    1.3670   -1.6303 C   0  0  0  0  0  0  0  0  0  0  0  0
   -1.8688    2.4688   -1.9762 C   0  0  0  0  0  0  0  0  0  0  0  0
   -0.5687    2.8187   -1.3818 C   0  0  0  0  0  0  0  0  0  0  0  0
    0.0228    3.8366   -1.7217 O   0  0  0  0  0  0  0  0  0  0  0  0
   -0.0676    1.9472   -0.4277 O   0  0  0  0  0  0  0  0  0  0  0  0
    4.3226   -0.3510   -0.7816 C   0  0  0  0  0  0  0  0  0  0  0  0
    2.5838    2.4211    0.4321 H   0  0  0  0  0  0  0  0  0  0  0  0
    4.3187    2.2387    0.2016 H   0  0  0  0  0  0  0  0  0  0  0  0
    3.2216    2.1837   -1.1935 H   0  0  0  0  0  0  0  0  0  0  0  0
    2.3750   -1.3710    0.6989 H   0  0  0  0  0  0  0  0  0  0  0  0
    1.2644   -0.1478    2.5218 H   0  0  0  0  0  0  0  0  0  0  0  0
    1.2694    1.3502    1.6645 H   0  0  0  0  0  0  0  0  0  0  0  0
   -3.6112   -0.9341   -0.7180 H   0  0  0  0  0  0  0  0  0  0  0  0
   -0.9394   -2.8119    2.2697 H   0  0  0  0  0  0  0  0  0  0  0  0
   -4.1789   -4.0631    1.0620 H   0  0  0  0  0  0  0  0  0  0  0  0
   -3.8126   -3.2803   -0.4803 H   0  0  0  0  0  0  0  0  0  0  0  0
   -4.6622   -2.3777    0.8353 H   0  0  0  0  0  0  0  0  0  0  0  0
   -3.4974    1.1327   -2.0843 H   0  0  0  0  0  0  0  0  0  0  0  0
   -2.2499    3.1632   -2.7150 H   0  0  0  0  0  0  0  0  0  0  0  0
    4.2302   -1.4371   -0.6762 H   0  0  0  0  0  0  0  0  0  0  0  0
    4.2600   -0.1147   -1.8489 H   0  0  0  0  0  0  0  0  0  0  0  0
    5.3155   -0.0656   -0.4190 H   0  0  0  0  0  0  0  0  0  0  0  0
  1  2  1  0
  2  3  2  3
  3  4  1  0
  4  5  1  0
  5  6  1  0
  6  7  2  0
  7  8  1  0
  8  9  2  0
  9 10  1  0
 10 11  1  0
  9 12  1  0
 12 13  1  0
  7 14  1  0
 14 15  2  0
 15 16  1  0
 16 17  2  0
 16 18  1  0
  2 19  1  0
 10  5  2  0
 18  6  1  0
  1 20  1  0
  1 21  1  0
  1 22  1  0
  3 23  1  0
  4 24  1  0
  4 25  1  0
  8 26  1  0
 11 27  1  0
 13 28  1  0
 13 29  1  0
 13 30  1  0
 14 31  1  0
 15 32  1  0
 19 33  1  0
 19 34  1  0
 19 35  1  0
M  END
>  <Name>  (571) 
Cedrelopsin

>  <PubChem ID>  (571) 
12302592

>  <CDB ID>  (571) 
CDB0571

>  <Smiles>  (571) 
CC(=CCC1=C2C(=CC(=C1O)OC)C=CC(=O)O2)C

>  <Chemical class>  (571) 
6,7-Dioxygenated Coumarins

>  <Natural source>  (571) 
Cedrelopsis grevei

>  <Molecular Formula>  (571) 
C15H16O4

>  <InChI-Key>  (571) 
IIEIJMSDKBAFFP-UHFFFAOYSA-N

>  <Total Molweight>  (571) 
260.288

>  <cLogP>  (571) 
3.1042

>  <cLogS>  (571) 
-3.031

>  <H-Acceptors>  (571) 
4

>  <H-Donors>  (571) 
1

>  <Rotatable Bonds>  (571) 
3

>  <Polar Surface Area>  (571) 
55.76

$$$$
CDB0572
     RDKit          3D

 35 37  0  0  0  0  0  0  0  0999 V2000
   -3.3298    1.4306    1.1278 C   0  0  0  0  0  0  0  0  0  0  0  0
   -1.9604    0.7700    1.2070 C   0  0  0  0  0  0  0  0  0  0  0  0
   -1.7239   -0.4202    0.2344 C   0  0  0  0  0  0  0  0  0  0  0  0
   -0.2491   -0.2356    0.0483 C   0  0  0  0  0  0  0  0  0  0  0  0
    0.7177   -1.0688   -0.4840 C   0  0  0  0  0  0  0  0  0  0  0  0
    2.0375   -0.6251   -0.6005 C   0  0  0  0  0  0  0  0  0  0  0  0
    2.3804    0.6764   -0.1870 C   0  0  0  0  0  0  0  0  0  0  0  0
    1.4093    1.5346    0.3419 C   0  0  0  0  0  0  0  0  0  0  0  0
    0.1112    1.0458    0.4530 C   0  0  0  0  0  0  0  0  0  0  0  0
   -0.9497    1.7748    0.9410 O   0  0  0  0  0  0  0  0  0  0  0  0
    1.6178    2.8138    0.7707 O   0  0  0  0  0  0  0  0  0  0  0  0
    2.9291    3.3423    0.6341 C   0  0  0  0  0  0  0  0  0  0  0  0
    3.0313   -1.5284   -1.1623 C   0  0  0  0  0  0  0  0  0  0  0  0
    2.6633   -2.7493   -1.5621 C   0  0  0  0  0  0  0  0  0  0  0  0
    1.2746   -3.2291   -1.4593 C   0  0  0  0  0  0  0  0  0  0  0  0
    0.9715   -4.3543   -1.8384 O   0  0  0  0  0  0  0  0  0  0  0  0
    0.3463   -2.3515   -0.9182 O   0  0  0  0  0  0  0  0  0  0  0  0
   -2.1226   -1.7421    0.8971 C   0  0  0  0  0  0  0  0  0  0  0  0
   -2.4327   -0.2737   -1.1204 C   0  0  0  0  0  0  0  0  0  0  0  0
   -4.1335    0.7073    1.2922 H   0  0  0  0  0  0  0  0  0  0  0  0
   -3.4106    2.2150    1.8887 H   0  0  0  0  0  0  0  0  0  0  0  0
   -3.4826    1.9278    0.1644 H   0  0  0  0  0  0  0  0  0  0  0  0
   -1.8025    0.4475    2.2473 H   0  0  0  0  0  0  0  0  0  0  0  0
    3.4108    1.0007   -0.2906 H   0  0  0  0  0  0  0  0  0  0  0  0
    3.2370    3.3698   -0.4164 H   0  0  0  0  0  0  0  0  0  0  0  0
    2.9156    4.3721    1.0040 H   0  0  0  0  0  0  0  0  0  0  0  0
    3.6459    2.7799    1.2414 H   0  0  0  0  0  0  0  0  0  0  0  0
    4.0603   -1.1976   -1.2502 H   0  0  0  0  0  0  0  0  0  0  0  0
    3.3724   -3.4499   -1.9857 H   0  0  0  0  0  0  0  0  0  0  0  0
   -3.1856   -1.7407    1.1626 H   0  0  0  0  0  0  0  0  0  0  0  0
   -1.5480   -1.9231    1.8129 H   0  0  0  0  0  0  0  0  0  0  0  0
   -1.9534   -2.5966    0.2334 H   0  0  0  0  0  0  0  0  0  0  0  0
   -2.2068    0.6867   -1.5985 H   0  0  0  0  0  0  0  0  0  0  0  0
   -2.1210   -1.0608   -1.8173 H   0  0  0  0  0  0  0  0  0  0  0  0
   -3.5202   -0.3484   -1.0115 H   0  0  0  0  0  0  0  0  0  0  0  0
  1  2  1  0
  2  3  1  0
  3  4  1  0
  4  5  1  0
  5  6  2  0
  6  7  1  0
  7  8  2  0
  8  9  1  0
  9 10  1  0
  8 11  1  0
 11 12  1  0
  6 13  1  0
 13 14  2  0
 14 15  1  0
 15 16  2  0
 15 17  1  0
  3 18  1  0
  3 19  1  0
 10  2  1  0
  9  4  2  0
 17  5  1  0
  1 20  1  0
  1 21  1  0
  1 22  1  0
  2 23  1  0
  7 24  1  0
 12 25  1  0
 12 26  1  0
 12 27  1  0
 13 28  1  0
 14 29  1  0
 18 30  1  0
 18 31  1  0
 18 32  1  0
 19 33  1  0
 19 34  1  0
 19 35  1  0
M  END
>  <Name>  (572) 
Nieshoutin

>  <PubChem ID>  (572) 
12308822

>  <CDB ID>  (572) 
CDB0572

>  <Smiles>  (572) 
CC1C(C2=C3C(=CC(=C2O1)OC)C=CC(=O)O3)(C)C

>  <Chemical class>  (572) 
6,7-Dioxygenated Coumarins

>  <Natural source>  (572) 
Ptaeroxylon obliquum

>  <Molecular Formula>  (572) 
C15H16O4

>  <InChI-Key>  (572) 
URXLWURDLTXTCV-MRVPVSSYSA-N

>  <Total Molweight>  (572) 
260.288

>  <cLogP>  (572) 
2.4289

>  <cLogS>  (572) 
-3.79

>  <H-Acceptors>  (572) 
4

>  <H-Donors>  (572) 
0

>  <Rotatable Bonds>  (572) 
1

>  <Polar Surface Area>  (572) 
44.76

$$$$
CDB0573
     RDKit          3D

 21 23  0  0  0  0  0  0  0  0999 V2000
   -2.5715    0.3299    0.2118 C   0  0  0  0  0  0  0  0  0  0  0  0
   -3.0846   -0.8725    0.4878 C   0  0  0  0  0  0  0  0  0  0  0  0
   -2.2504   -2.0780    0.6216 C   0  0  0  0  0  0  0  0  0  0  0  0
   -2.7555   -3.1650    0.8755 O   0  0  0  0  0  0  0  0  0  0  0  0
   -0.8842   -1.9157    0.4468 O   0  0  0  0  0  0  0  0  0  0  0  0
   -0.3148   -0.6540    0.1539 C   0  0  0  0  0  0  0  0  0  0  0  0
    1.0766   -0.5420   -0.0142 C   0  0  0  0  0  0  0  0  0  0  0  0
    2.1954   -1.4151    0.0281 C   0  0  0  0  0  0  0  0  0  0  0  0
    3.3039   -0.6408   -0.2322 C   0  0  0  0  0  0  0  0  0  0  0  0
    2.9480    0.6566   -0.4336 O   0  0  0  0  0  0  0  0  0  0  0  0
    1.5932    0.7149   -0.3007 C   0  0  0  0  0  0  0  0  0  0  0  0
    0.8074    1.8594   -0.4283 C   0  0  0  0  0  0  0  0  0  0  0  0
   -0.5705    1.7294   -0.2583 C   0  0  0  0  0  0  0  0  0  0  0  0
   -1.1346    0.4812    0.0316 C   0  0  0  0  0  0  0  0  0  0  0  0
    1.3395    3.0892   -0.7114 O   0  0  0  0  0  0  0  0  0  0  0  0
   -3.2102    1.2020    0.1188 H   0  0  0  0  0  0  0  0  0  0  0  0
   -4.1487   -1.0198    0.6278 H   0  0  0  0  0  0  0  0  0  0  0  0
    2.1895   -2.4782    0.2246 H   0  0  0  0  0  0  0  0  0  0  0  0
    4.3622   -0.8512   -0.3056 H   0  0  0  0  0  0  0  0  0  0  0  0
   -1.1944    2.6148   -0.3553 H   0  0  0  0  0  0  0  0  0  0  0  0
    2.3036    2.9549   -0.7889 H   0  0  0  0  0  0  0  0  0  0  0  0
  1  2  2  0
  2  3  1  0
  3  4  2  0
  3  5  1  0
  5  6  1  0
  6  7  2  0
  7  8  1  0
  8  9  2  0
  9 10  1  0
 10 11  1  0
 11 12  2  0
 12 13  1  0
 13 14  2  0
 12 15  1  0
 14  1  1  0
 14  6  1  0
 11  7  1  0
  1 16  1  0
  2 17  1  0
  8 18  1  0
  9 19  1  0
 13 20  1  0
 15 21  1  0
M  END
>  <Name>  (573) 
Heratomol

>  <PubChem ID>  (573) 
10465441

>  <CDB ID>  (573) 
CDB0573

>  <Smiles>  (573) 
C1=CC(=O)OC2=C3C=COC3=C(C=C21)O

>  <Chemical class>  (573) 
6,7-Dioxygenated Coumarins

>  <Natural source>  (573) 
Heracleum thomsoni

>  <Molecular Formula>  (573) 
C11H6O4

>  <InChI-Key>  (573) 
ZKCVFMVZXPEHMD-UHFFFAOYSA-N

>  <Total Molweight>  (573) 
202.165

>  <cLogP>  (573) 
1.6033

>  <cLogS>  (573) 
-3.233

>  <H-Acceptors>  (573) 
4

>  <H-Donors>  (573) 
1

>  <Rotatable Bonds>  (573) 
0

>  <Polar Surface Area>  (573) 
59.67

$$$$
CDB0574
     RDKit          3D

 24 26  0  0  0  0  0  0  0  0999 V2000
    3.5295   -1.2485    0.0644 C   0  0  0  0  0  0  0  0  0  0  0  0
    2.9113    0.0295    0.0142 O   0  0  0  0  0  0  0  0  0  0  0  0
    1.5465    0.0667    0.0057 C   0  0  0  0  0  0  0  0  0  0  0  0
    0.9186    1.3200   -0.0437 C   0  0  0  0  0  0  0  0  0  0  0  0
   -0.4587    1.5119   -0.0580 C   0  0  0  0  0  0  0  0  0  0  0  0
   -1.2816    0.3764   -0.0206 C   0  0  0  0  0  0  0  0  0  0  0  0
   -0.7074   -0.9000    0.0294 C   0  0  0  0  0  0  0  0  0  0  0  0
    0.6880   -1.0460    0.0421 C   0  0  0  0  0  0  0  0  0  0  0  0
   -1.5859   -2.0613    0.0675 C   0  0  0  0  0  0  0  0  0  0  0  0
   -2.9115   -1.8936    0.0544 C   0  0  0  0  0  0  0  0  0  0  0  0
   -3.5405   -0.5636    0.0022 C   0  0  0  0  0  0  0  0  0  0  0  0
   -4.7601   -0.4475   -0.0085 O   0  0  0  0  0  0  0  0  0  0  0  0
   -2.6877    0.5290   -0.0335 O   0  0  0  0  0  0  0  0  0  0  0  0
   -0.6605    2.9172   -0.1108 C   0  0  0  0  0  0  0  0  0  0  0  0
    0.5903    3.4875   -0.1252 C   0  0  0  0  0  0  0  0  0  0  0  0
    1.5522    2.5301   -0.0849 O   0  0  0  0  0  0  0  0  0  0  0  0
    4.6132   -1.0968    0.0645 H   0  0  0  0  0  0  0  0  0  0  0  0
    3.2766   -1.8441   -0.8189 H   0  0  0  0  0  0  0  0  0  0  0  0
    3.2672   -1.7777    0.9864 H   0  0  0  0  0  0  0  0  0  0  0  0
    1.1003   -2.0503    0.0812 H   0  0  0  0  0  0  0  0  0  0  0  0
   -1.1512   -3.0544    0.1064 H   0  0  0  0  0  0  0  0  0  0  0  0
   -3.5939   -2.7346    0.0818 H   0  0  0  0  0  0  0  0  0  0  0  0
   -1.6043    3.4435   -0.1351 H   0  0  0  0  0  0  0  0  0  0  0  0
    0.9494    4.5066   -0.1608 H   0  0  0  0  0  0  0  0  0  0  0  0
  1  2  1  0
  2  3  1  0
  3  4  2  0
  4  5  1  0
  5  6  2  0
  6  7  1  0
  7  8  2  0
  7  9  1  0
  9 10  2  0
 10 11  1  0
 11 12  2  0
 11 13  1  0
  5 14  1  0
 14 15  2  0
 15 16  1  0
  8  3  1  0
 16  4  1  0
 13  6  1  0
  1 17  1  0
  1 18  1  0
  1 19  1  0
  8 20  1  0
  9 21  1  0
 10 22  1  0
 14 23  1  0
 15 24  1  0
M  END
>  <Name>  (574) 
Sphondin

>  <PubChem ID>  (574) 
108104

>  <CDB ID>  (574) 
CDB0574

>  <Smiles>  (574) 
COC1=C2C(=C3C(=C1)C=CC(=O)O3)C=CO2

>  <Chemical class>  (574) 
6,7-Dioxygenated Coumarins

>  <Natural source>  (574) 
Heracleum sphondylium

>  <Molecular Formula>  (574) 
C12H8O4

>  <InChI-Key>  (574) 
DLCJNIBLOSKIQW-UHFFFAOYSA-N

>  <Total Molweight>  (574) 
216.192

>  <cLogP>  (574) 
1.879

>  <cLogS>  (574) 
-3.547

>  <H-Acceptors>  (574) 
4

>  <H-Donors>  (574) 
0

>  <Rotatable Bonds>  (574) 
1

>  <Polar Surface Area>  (574) 
48.67

$$$$
CDB0575
     RDKit          3D

 34 36  0  0  0  0  0  0  0  0999 V2000
    4.1460    2.0325   -0.3269 C   0  0  0  0  0  0  0  0  0  0  0  0
    4.1501    0.6931    0.3559 C   0  0  0  0  0  0  0  0  0  0  0  0
    3.0558    0.0290    0.7789 C   0  0  0  0  0  0  0  0  0  0  0  0
    1.6142    0.4283    0.6577 C   0  0  0  0  0  0  0  0  0  0  0  0
    0.9033   -0.7007    0.1512 O   0  0  0  0  0  0  0  0  0  0  0  0
   -0.4509   -0.5892    0.0190 C   0  0  0  0  0  0  0  0  0  0  0  0
   -1.1642   -1.7090   -0.4333 C   0  0  0  0  0  0  0  0  0  0  0  0
   -2.5420   -1.7449   -0.6177 C   0  0  0  0  0  0  0  0  0  0  0  0
   -3.2743   -0.5828   -0.3334 C   0  0  0  0  0  0  0  0  0  0  0  0
   -2.6126    0.5649    0.1207 C   0  0  0  0  0  0  0  0  0  0  0  0
   -1.2199    0.5554    0.2923 C   0  0  0  0  0  0  0  0  0  0  0  0
   -3.3980    1.7578    0.4074 C   0  0  0  0  0  0  0  0  0  0  0  0
   -4.7229    1.7394    0.2352 C   0  0  0  0  0  0  0  0  0  0  0  0
   -5.4429    0.5465   -0.2403 C   0  0  0  0  0  0  0  0  0  0  0  0
   -6.6591    0.5657   -0.3863 O   0  0  0  0  0  0  0  0  0  0  0  0
   -4.6779   -0.5784   -0.5079 O   0  0  0  0  0  0  0  0  0  0  0  0
   -2.8441   -3.0542   -1.0794 C   0  0  0  0  0  0  0  0  0  0  0  0
   -1.6468   -3.7265   -1.1465 C   0  0  0  0  0  0  0  0  0  0  0  0
   -0.6248   -2.9220   -0.7574 O   0  0  0  0  0  0  0  0  0  0  0  0
    5.5236    0.1038    0.5501 C   0  0  0  0  0  0  0  0  0  0  0  0
    4.7966    2.7303    0.2114 H   0  0  0  0  0  0  0  0  0  0  0  0
    3.1574    2.4934   -0.3759 H   0  0  0  0  0  0  0  0  0  0  0  0
    4.5203    1.9336   -1.3510 H   0  0  0  0  0  0  0  0  0  0  0  0
    3.1945   -0.9345    1.2699 H   0  0  0  0  0  0  0  0  0  0  0  0
    1.4809    1.2749   -0.0205 H   0  0  0  0  0  0  0  0  0  0  0  0
    1.2447    0.6852    1.6575 H   0  0  0  0  0  0  0  0  0  0  0  0
   -0.7401    1.4644    0.6442 H   0  0  0  0  0  0  0  0  0  0  0  0
   -2.8954    2.6524    0.7593 H   0  0  0  0  0  0  0  0  0  0  0  0
   -5.3375    2.6081    0.4386 H   0  0  0  0  0  0  0  0  0  0  0  0
   -3.8169   -3.4526   -1.3307 H   0  0  0  0  0  0  0  0  0  0  0  0
   -1.3651   -4.7295   -1.4359 H   0  0  0  0  0  0  0  0  0  0  0  0
    6.1366    0.7667    1.1696 H   0  0  0  0  0  0  0  0  0  0  0  0
    5.4918   -0.8745    1.0413 H   0  0  0  0  0  0  0  0  0  0  0  0
    6.0197   -0.0266   -0.4173 H   0  0  0  0  0  0  0  0  0  0  0  0
  1  2  1  0
  2  3  2  3
  3  4  1  0
  4  5  1  0
  5  6  1  0
  6  7  2  0
  7  8  1  0
  8  9  2  0
  9 10  1  0
 10 11  2  0
 10 12  1  0
 12 13  2  0
 13 14  1  0
 14 15  2  0
 14 16  1  0
  8 17  1  0
 17 18  2  0
 18 19  1  0
  2 20  1  0
 11  6  1  0
 19  7  1  0
 16  9  1  0
  1 21  1  0
  1 22  1  0
  1 23  1  0
  3 24  1  0
  4 25  1  0
  4 26  1  0
 11 27  1  0
 12 28  1  0
 13 29  1  0
 17 30  1  0
 18 31  1  0
 20 32  1  0
 20 33  1  0
 20 34  1  0
M  END
>  <Name>  (575) 
Heratomin

>  <PubChem ID>  (575) 
181312

>  <CDB ID>  (575) 
CDB0575

>  <Smiles>  (575) 
CC(=CCOC1=C2C(=C3C(=C1)C=CC(=O)O3)C=CO2)C

>  <Chemical class>  (575) 
6,7-Dioxygenated Coumarins

>  <Natural source>  (575) 
Heracleum thomsoni

>  <Molecular Formula>  (575) 
C16H14O4

>  <InChI-Key>  (575) 
DSDJMMMGDPDPIX-UHFFFAOYSA-N

>  <Total Molweight>  (575) 
270.283

>  <cLogP>  (575) 
3.5483

>  <cLogS>  (575) 
-4.283

>  <H-Acceptors>  (575) 
4

>  <H-Donors>  (575) 
0

>  <Rotatable Bonds>  (575) 
3

>  <Polar Surface Area>  (575) 
48.67

$$$$
CDB0576
     RDKit          3D

 36 38  0  0  0  0  0  0  0  0999 V2000
   -3.7874    0.5194   -0.6091 C   0  0  0  0  0  0  0  0  0  0  0  0
   -2.4851   -0.0486   -0.0194 C   0  0  0  0  0  0  0  0  0  0  0  0
   -2.0885   -1.3236   -0.7936 C   0  0  0  0  0  0  0  0  0  0  0  0
   -0.7268   -1.8274   -0.3268 C   0  0  0  0  0  0  0  0  0  0  0  0
    0.2535   -0.7022   -0.1844 C   0  0  0  0  0  0  0  0  0  0  0  0
    1.6267   -0.9574   -0.0848 C   0  0  0  0  0  0  0  0  0  0  0  0
    2.5622    0.0675    0.0519 C   0  0  0  0  0  0  0  0  0  0  0  0
    2.1210    1.3923    0.0950 C   0  0  0  0  0  0  0  0  0  0  0  0
    0.7540    1.6822    0.0117 C   0  0  0  0  0  0  0  0  0  0  0  0
   -0.1767    0.6287   -0.1146 C   0  0  0  0  0  0  0  0  0  0  0  0
   -1.5003    0.9880   -0.1860 O   0  0  0  0  0  0  0  0  0  0  0  0
    0.2237    2.9475    0.0512 O   0  0  0  0  0  0  0  0  0  0  0  0
    1.1219    4.0402    0.1775 C   0  0  0  0  0  0  0  0  0  0  0  0
    3.9749   -0.2688    0.1457 C   0  0  0  0  0  0  0  0  0  0  0  0
    4.3561   -1.5486    0.1006 C   0  0  0  0  0  0  0  0  0  0  0  0
    3.3936   -2.6528   -0.0433 C   0  0  0  0  0  0  0  0  0  0  0  0
    3.7740   -3.8166   -0.0857 O   0  0  0  0  0  0  0  0  0  0  0  0
    2.0532   -2.3045   -0.1289 O   0  0  0  0  0  0  0  0  0  0  0  0
   -3.0639   -2.3565   -0.6437 O   0  0  0  0  0  0  0  0  0  0  0  0
   -2.7136   -0.2884    1.4830 C   0  0  0  0  0  0  0  0  0  0  0  0
   -4.0563    1.4645   -0.1228 H   0  0  0  0  0  0  0  0  0  0  0  0
   -4.6262   -0.1754   -0.4988 H   0  0  0  0  0  0  0  0  0  0  0  0
   -3.6637    0.7482   -1.6741 H   0  0  0  0  0  0  0  0  0  0  0  0
   -2.0215   -1.0812   -1.8632 H   0  0  0  0  0  0  0  0  0  0  0  0
   -0.3649   -2.5657   -1.0536 H   0  0  0  0  0  0  0  0  0  0  0  0
   -0.8191   -2.3565    0.6300 H   0  0  0  0  0  0  0  0  0  0  0  0
    2.8552    2.1842    0.1980 H   0  0  0  0  0  0  0  0  0  0  0  0
    1.8026    4.0929   -0.6785 H   0  0  0  0  0  0  0  0  0  0  0  0
    0.5301    4.9605    0.1884 H   0  0  0  0  0  0  0  0  0  0  0  0
    1.6749    3.9895    1.1212 H   0  0  0  0  0  0  0  0  0  0  0  0
    4.7039    0.5272    0.2524 H   0  0  0  0  0  0  0  0  0  0  0  0
    5.3979   -1.8379    0.1676 H   0  0  0  0  0  0  0  0  0  0  0  0
   -2.7811   -3.1088   -1.1927 H   0  0  0  0  0  0  0  0  0  0  0  0
   -3.5032   -1.0256    1.6609 H   0  0  0  0  0  0  0  0  0  0  0  0
   -2.9969    0.6456    1.9826 H   0  0  0  0  0  0  0  0  0  0  0  0
   -1.8043   -0.6320    1.9863 H   0  0  0  0  0  0  0  0  0  0  0  0
  1  2  1  0
  2  3  1  0
  3  4  1  0
  4  5  1  0
  5  6  1  0
  6  7  2  0
  7  8  1  0
  8  9  2  0
  9 10  1  0
 10 11  1  0
  9 12  1  0
 12 13  1  0
  7 14  1  0
 14 15  2  0
 15 16  1  0
 16 17  2  0
 16 18  1  0
  3 19  1  0
  2 20  1  0
 11  2  1  0
 10  5  2  0
 18  6  1  0
  1 21  1  0
  1 22  1  0
  1 23  1  0
  3 24  1  0
  4 25  1  0
  4 26  1  0
  8 27  1  0
 13 28  1  0
 13 29  1  0
 13 30  1  0
 14 31  1  0
 15 32  1  0
 19 33  1  0
 20 34  1  0
 20 35  1  0
 20 36  1  0
M  END
>  <Name>  (576) 
Toddanin

>  <PubChem ID>  (576) 
275740590

>  <CDB ID>  (576) 
CDB0576

>  <Smiles>  (576) 
CC1(C(CC2=C3C(=CC(=C2O1)OC)C=CC(=O)O3)O)C

>  <Chemical class>  (576) 
6,7-Dioxygenated Coumarins

>  <Natural source>  (576) 
Toddalia asiatica

>  <Molecular Formula>  (576) 
C15H16O5

>  <InChI-Key>  (576) 
JDCPKIGGMYRBEY-LLVKDONJSA-N

>  <Total Molweight>  (576) 
276.287

>  <cLogP>  (576) 
1.7658

>  <cLogS>  (576) 
-3.113

>  <H-Acceptors>  (576) 
5

>  <H-Donors>  (576) 
1

>  <Rotatable Bonds>  (576) 
1

>  <Polar Surface Area>  (576) 
64.99

$$$$
CDB0577
     RDKit          3D

 30 32  0  0  0  0  0  0  0  0999 V2000
    3.5247   -0.0466    0.7357 C   0  0  0  0  0  0  0  0  0  0  0  0
    2.4614   -0.3354   -0.3304 C   0  0  0  0  0  0  0  0  0  0  0  0
    1.7220   -1.6014    0.0326 C   0  0  0  0  0  0  0  0  0  0  0  0
    0.4055   -1.6492    0.2531 C   0  0  0  0  0  0  0  0  0  0  0  0
   -0.3556   -0.4137    0.1369 C   0  0  0  0  0  0  0  0  0  0  0  0
   -1.7428   -0.3577    0.3487 C   0  0  0  0  0  0  0  0  0  0  0  0
   -2.4630    0.8367    0.2339 C   0  0  0  0  0  0  0  0  0  0  0  0
   -1.7861    2.0085   -0.1008 C   0  0  0  0  0  0  0  0  0  0  0  0
   -0.4124    1.9610   -0.3121 C   0  0  0  0  0  0  0  0  0  0  0  0
    0.3081    0.7664   -0.1973 C   0  0  0  0  0  0  0  0  0  0  0  0
    1.6540    0.8577   -0.4309 O   0  0  0  0  0  0  0  0  0  0  0  0
    0.2300    3.1240   -0.6396 O   0  0  0  0  0  0  0  0  0  0  0  0
   -3.8989    0.8292    0.4658 C   0  0  0  0  0  0  0  0  0  0  0  0
   -4.5129   -0.3136    0.7848 C   0  0  0  0  0  0  0  0  0  0  0  0
   -3.7884   -1.5880    0.9144 C   0  0  0  0  0  0  0  0  0  0  0  0
   -4.3802   -2.6198    1.2084 O   0  0  0  0  0  0  0  0  0  0  0  0
   -2.4204   -1.5540    0.6883 O   0  0  0  0  0  0  0  0  0  0  0  0
    3.1344   -0.5157   -1.6961 C   0  0  0  0  0  0  0  0  0  0  0  0
    3.0597    0.1300    1.7131 H   0  0  0  0  0  0  0  0  0  0  0  0
    4.0843    0.8644    0.4924 H   0  0  0  0  0  0  0  0  0  0  0  0
    4.2384   -0.8715    0.8385 H   0  0  0  0  0  0  0  0  0  0  0  0
    2.3032   -2.5167    0.1159 H   0  0  0  0  0  0  0  0  0  0  0  0
   -0.0974   -2.5744    0.5124 H   0  0  0  0  0  0  0  0  0  0  0  0
   -2.3077    2.9561   -0.1999 H   0  0  0  0  0  0  0  0  0  0  0  0
    1.1703    2.8784   -0.7431 H   0  0  0  0  0  0  0  0  0  0  0  0
   -4.4537    1.7571    0.3758 H   0  0  0  0  0  0  0  0  0  0  0  0
   -5.5802   -0.3578    0.9646 H   0  0  0  0  0  0  0  0  0  0  0  0
    3.6872    0.3871   -1.9812 H   0  0  0  0  0  0  0  0  0  0  0  0
    3.8303   -1.3618   -1.7029 H   0  0  0  0  0  0  0  0  0  0  0  0
    2.3863   -0.6791   -2.4812 H   0  0  0  0  0  0  0  0  0  0  0  0
  1  2  1  0
  2  3  1  0
  3  4  2  0
  4  5  1  0
  5  6  1  0
  6  7  2  0
  7  8  1  0
  8  9  2  0
  9 10  1  0
 10 11  1  0
  9 12  1  0
  7 13  1  0
 13 14  2  0
 14 15  1  0
 15 16  2  0
 15 17  1  0
  2 18  1  0
 11  2  1  0
 10  5  2  0
 17  6  1  0
  1 19  1  0
  1 20  1  0
  1 21  1  0
  3 22  1  0
  4 23  1  0
  8 24  1  0
 12 25  1  0
 13 26  1  0
 14 27  1  0
 18 28  1  0
 18 29  1  0
 18 30  1  0
M  END
>  <Name>  (577) 
Norbraylin

>  <PubChem ID>  (577) 
10105863

>  <CDB ID>  (577) 
CDB0577

>  <Smiles>  (577) 
CC1(C=CC2=C3C(=CC(=C2O1)O)C=CC(=O)O3)C

>  <Chemical class>  (577) 
6,7-Dioxygenated Coumarins

>  <Natural source>  (577) 
Toddalia aculeata

>  <Molecular Formula>  (577) 
C14H12O4

>  <InChI-Key>  (577) 
OYPWMLRFDXSKJG-UHFFFAOYSA-N

>  <Total Molweight>  (577) 
244.245

>  <cLogP>  (577) 
2.1784

>  <cLogS>  (577) 
-3.333

>  <H-Acceptors>  (577) 
4

>  <H-Donors>  (577) 
1

>  <Rotatable Bonds>  (577) 
0

>  <Polar Surface Area>  (577) 
55.76

$$$$
CDB0578
     RDKit          3D

 33 35  0  0  0  0  0  0  0  0999 V2000
   -3.5134   -0.8012    1.3341 C   0  0  0  0  0  0  0  0  0  0  0  0
   -2.4962   -0.9596    0.1976 C   0  0  0  0  0  0  0  0  0  0  0  0
   -1.6300   -2.1643    0.4719 C   0  0  0  0  0  0  0  0  0  0  0  0
   -0.2957   -2.1169    0.4823 C   0  0  0  0  0  0  0  0  0  0  0  0
    0.3515   -0.8404    0.2071 C   0  0  0  0  0  0  0  0  0  0  0  0
    1.7446   -0.7180    0.1221 C   0  0  0  0  0  0  0  0  0  0  0  0
    2.3600    0.5084   -0.1316 C   0  0  0  0  0  0  0  0  0  0  0  0
    1.5696    1.6483   -0.3029 C   0  0  0  0  0  0  0  0  0  0  0  0
    0.1751    1.5580   -0.2206 C   0  0  0  0  0  0  0  0  0  0  0  0
   -0.4293    0.3082    0.0306 C   0  0  0  0  0  0  0  0  0  0  0  0
   -1.7983    0.2959    0.1130 O   0  0  0  0  0  0  0  0  0  0  0  0
   -0.6829    2.6188   -0.3737 O   0  0  0  0  0  0  0  0  0  0  0  0
   -0.1181    3.9021   -0.5995 C   0  0  0  0  0  0  0  0  0  0  0  0
    3.8120    0.5742   -0.2109 C   0  0  0  0  0  0  0  0  0  0  0  0
    4.5369   -0.5349   -0.0402 C   0  0  0  0  0  0  0  0  0  0  0  0
    3.9213   -1.8440    0.2294 C   0  0  0  0  0  0  0  0  0  0  0  0
    4.6133   -2.8435    0.3817 O   0  0  0  0  0  0  0  0  0  0  0  0
    2.5370   -1.8780    0.2995 O   0  0  0  0  0  0  0  0  0  0  0  0
   -3.2345   -1.1510   -1.1323 C   0  0  0  0  0  0  0  0  0  0  0  0
   -4.1599    0.0673    1.1613 H   0  0  0  0  0  0  0  0  0  0  0  0
   -3.0060   -0.6216    2.2897 H   0  0  0  0  0  0  0  0  0  0  0  0
   -4.1495   -1.6865    1.4434 H   0  0  0  0  0  0  0  0  0  0  0  0
   -2.1277   -3.1128    0.6563 H   0  0  0  0  0  0  0  0  0  0  0  0
    0.3035   -2.9997    0.6759 H   0  0  0  0  0  0  0  0  0  0  0  0
    2.0574    2.5972   -0.4993 H   0  0  0  0  0  0  0  0  0  0  0  0
    0.5112    4.2107    0.2418 H   0  0  0  0  0  0  0  0  0  0  0  0
    0.4391    3.9274   -1.5417 H   0  0  0  0  0  0  0  0  0  0  0  0
   -0.9400    4.6200   -0.6804 H   0  0  0  0  0  0  0  0  0  0  0  0
    4.2900    1.5276   -0.4084 H   0  0  0  0  0  0  0  0  0  0  0  0
    5.6188   -0.5251   -0.0920 H   0  0  0  0  0  0  0  0  0  0  0  0
   -3.8786   -0.2905   -1.3483 H   0  0  0  0  0  0  0  0  0  0  0  0
   -3.8548   -2.0540   -1.1309 H   0  0  0  0  0  0  0  0  0  0  0  0
   -2.5263   -1.2219   -1.9666 H   0  0  0  0  0  0  0  0  0  0  0  0
  1  2  1  0
  2  3  1  0
  3  4  2  0
  4  5  1  0
  5  6  1  0
  6  7  2  0
  7  8  1  0
  8  9  2  0
  9 10  1  0
 10 11  1  0
  9 12  1  0
 12 13  1  0
  7 14  1  0
 14 15  2  0
 15 16  1  0
 16 17  2  0
 16 18  1  0
  2 19  1  0
 11  2  1  0
 10  5  2  0
 18  6  1  0
  1 20  1  0
  1 21  1  0
  1 22  1  0
  3 23  1  0
  4 24  1  0
  8 25  1  0
 13 26  1  0
 13 27  1  0
 13 28  1  0
 14 29  1  0
 15 30  1  0
 19 31  1  0
 19 32  1  0
 19 33  1  0
M  END
>  <Name>  (578) 
Braylin

>  <PubChem ID>  (578) 
618370

>  <CDB ID>  (578) 
CDB0578

>  <Smiles>  (578) 
CC1(C=CC2=C3C(=CC(=C2O1)OC)C=CC(=O)O3)C

>  <Chemical class>  (578) 
6,7-Dioxygenated Coumarins

>  <Natural source>  (578) 
Flindersia brayleana

>  <Molecular Formula>  (578) 
C15H14O4

>  <InChI-Key>  (578) 
UOFNVZWWIXXTMZ-UHFFFAOYSA-N

>  <Total Molweight>  (578) 
258.272

>  <cLogP>  (578) 
2.4541

>  <cLogS>  (578) 
-3.647

>  <H-Acceptors>  (578) 
4

>  <H-Donors>  (578) 
0

>  <Rotatable Bonds>  (578) 
1

>  <Polar Surface Area>  (578) 
44.76

$$$$
CDB0579
     RDKit          3D

 67 72  0  0  0  0  0  0  0  0999 V2000
    1.4879    2.3596    4.7647 C   0  0  0  0  0  0  0  0  0  0  0  0
    1.6725    2.7156    3.4019 O   0  0  0  0  0  0  0  0  0  0  0  0
    1.3018    1.8009    2.4476 C   0  0  0  0  0  0  0  0  0  0  0  0
    1.4738    2.2032    1.1060 C   0  0  0  0  0  0  0  0  0  0  0  0
    1.1174    1.3321    0.0714 C   0  0  0  0  0  0  0  0  0  0  0  0
    0.5974    0.0645    0.3639 C   0  0  0  0  0  0  0  0  0  0  0  0
    0.4333   -0.3334    1.6920 C   0  0  0  0  0  0  0  0  0  0  0  0
    0.7824    0.5326    2.7300 C   0  0  0  0  0  0  0  0  0  0  0  0
    0.2399   -0.8375   -0.7153 C   0  0  0  0  0  0  0  0  0  0  0  0
   -1.0749   -1.0949   -1.1007 C   0  0  0  0  0  0  0  0  0  0  0  0
   -2.3991   -0.6159   -0.6545 C   0  0  0  0  0  0  0  0  0  0  0  0
   -2.5797    0.6059    0.0127 C   0  0  0  0  0  0  0  0  0  0  0  0
   -3.8423    1.0339    0.4566 C   0  0  0  0  0  0  0  0  0  0  0  0
   -4.9543    0.2153    0.2151 C   0  0  0  0  0  0  0  0  0  0  0  0
   -4.7794   -0.9820   -0.4988 C   0  0  0  0  0  0  0  0  0  0  0  0
   -3.5267   -1.4028   -0.9472 C   0  0  0  0  0  0  0  0  0  0  0  0
   -3.3491   -2.7074   -1.6854 C   0  0  0  0  0  0  0  0  0  0  0  0
   -2.1998   -2.6361   -2.6913 C   0  0  0  0  0  0  0  0  0  0  0  0
   -1.0023   -2.0515   -2.1014 N   0  0  0  0  0  0  0  0  0  0  0  0
    0.3007   -2.2981   -2.4549 C   0  0  0  0  0  0  0  0  0  0  0  0
    1.0999   -1.6053   -1.5621 C   0  0  0  0  0  0  0  0  0  0  0  0
    2.5388   -1.7676   -1.6757 C   0  0  0  0  0  0  0  0  0  0  0  0
    3.4581   -1.1935   -0.7878 C   0  0  0  0  0  0  0  0  0  0  0  0
    4.8321   -1.3773   -0.9720 C   0  0  0  0  0  0  0  0  0  0  0  0
    5.2777   -2.1628   -2.0427 C   0  0  0  0  0  0  0  0  0  0  0  0
    4.3900   -2.7600   -2.9243 C   0  0  0  0  0  0  0  0  0  0  0  0
    3.0273   -2.5561   -2.7269 C   0  0  0  0  0  0  0  0  0  0  0  0
    2.1580   -3.2004   -3.6413 O   0  0  0  0  0  0  0  0  0  0  0  0
    0.7589   -3.1249   -3.5477 C   0  0  0  0  0  0  0  0  0  0  0  0
    0.0389   -3.7077   -4.3504 O   0  0  0  0  0  0  0  0  0  0  0  0
    6.6171   -2.3614   -2.2389 O   0  0  0  0  0  0  0  0  0  0  0  0
    5.8267   -0.8562   -0.1832 O   0  0  0  0  0  0  0  0  0  0  0  0
    5.4198    0.0264    0.8589 C   0  0  0  0  0  0  0  0  0  0  0  0
   -5.8756   -1.7682   -0.7564 O   0  0  0  0  0  0  0  0  0  0  0  0
   -6.2641    0.4509    0.5647 O   0  0  0  0  0  0  0  0  0  0  0  0
   -6.4881    1.2544    1.7174 C   0  0  0  0  0  0  0  0  0  0  0  0
   -4.0482    2.2352    1.0831 O   0  0  0  0  0  0  0  0  0  0  0  0
   -2.9072    2.9986    1.4599 C   0  0  0  0  0  0  0  0  0  0  0  0
    1.9928    3.4599    0.9149 O   0  0  0  0  0  0  0  0  0  0  0  0
    2.2188    3.8846   -0.4223 C   0  0  0  0  0  0  0  0  0  0  0  0
    0.4305    2.1824    4.9874 H   0  0  0  0  0  0  0  0  0  0  0  0
    2.1007    1.4927    5.0325 H   0  0  0  0  0  0  0  0  0  0  0  0
    1.8195    3.2027    5.3784 H   0  0  0  0  0  0  0  0  0  0  0  0
    1.2308    1.6121   -0.9712 H   0  0  0  0  0  0  0  0  0  0  0  0
    0.0292   -1.3167    1.9245 H   0  0  0  0  0  0  0  0  0  0  0  0
    0.6363    0.1856    3.7474 H   0  0  0  0  0  0  0  0  0  0  0  0
   -1.7187    1.2434    0.1608 H   0  0  0  0  0  0  0  0  0  0  0  0
   -4.2602   -2.9863   -2.2263 H   0  0  0  0  0  0  0  0  0  0  0  0
   -3.1505   -3.4915   -0.9437 H   0  0  0  0  0  0  0  0  0  0  0  0
   -2.4590   -2.0074   -3.5511 H   0  0  0  0  0  0  0  0  0  0  0  0
   -1.9717   -3.6474   -3.0367 H   0  0  0  0  0  0  0  0  0  0  0  0
    3.1029   -0.6157    0.0532 H   0  0  0  0  0  0  0  0  0  0  0  0
    4.7526   -3.3715   -3.7436 H   0  0  0  0  0  0  0  0  0  0  0  0
    7.0567   -1.8711   -1.5168 H   0  0  0  0  0  0  0  0  0  0  0  0
    4.8868    0.8948    0.4574 H   0  0  0  0  0  0  0  0  0  0  0  0
    4.8167   -0.4998    1.6060 H   0  0  0  0  0  0  0  0  0  0  0  0
    6.3229    0.3914    1.3574 H   0  0  0  0  0  0  0  0  0  0  0  0
   -6.6321   -1.2715   -0.3855 H   0  0  0  0  0  0  0  0  0  0  0  0
   -7.5029    1.0452    2.0708 H   0  0  0  0  0  0  0  0  0  0  0  0
   -5.8020    1.0073    2.5347 H   0  0  0  0  0  0  0  0  0  0  0  0
   -6.4486    2.3169    1.4603 H   0  0  0  0  0  0  0  0  0  0  0  0
   -3.2604    3.8677    2.0233 H   0  0  0  0  0  0  0  0  0  0  0  0
   -2.2437    2.4257    2.1162 H   0  0  0  0  0  0  0  0  0  0  0  0
   -2.3746    3.3697    0.5784 H   0  0  0  0  0  0  0  0  0  0  0  0
    2.9388    3.2325   -0.9278 H   0  0  0  0  0  0  0  0  0  0  0  0
    2.6499    4.8897   -0.3854 H   0  0  0  0  0  0  0  0  0  0  0  0
    1.2788    3.9466   -0.9802 H   0  0  0  0  0  0  0  0  0  0  0  0
  1  2  1  0
  2  3  1  0
  3  4  2  0
  4  5  1  0
  5  6  2  0
  6  7  1  0
  7  8  2  0
  6  9  1  0
  9 10  2  0
 10 11  1  0
 11 12  2  0
 12 13  1  0
 13 14  2  0
 14 15  1  0
 15 16  2  0
 16 17  1  0
 17 18  1  0
 18 19  1  0
 19 20  1  0
 20 21  2  0
 21 22  1  0
 22 23  1  0
 23 24  2  0
 24 25  1  0
 25 26  2  0
 26 27  1  0
 27 28  1  0
 28 29  1  0
 29 30  2  0
 25 31  1  0
 24 32  1  0
 32 33  1  0
 15 34  1  0
 14 35  1  0
 35 36  1  0
 13 37  1  0
 37 38  1  0
  4 39  1  0
 39 40  1  0
  8  3  1  0
 21  9  1  0
 19 10  1  0
 16 11  1  0
 29 20  1  0
 27 22  2  0
  1 41  1  0
  1 42  1  0
  1 43  1  0
  5 44  1  0
  7 45  1  0
  8 46  1  0
 12 47  1  0
 17 48  1  0
 17 49  1  0
 18 50  1  0
 18 51  1  0
 23 52  1  0
 26 53  1  0
 31 54  1  0
 33 55  1  0
 33 56  1  0
 33 57  1  0
 34 58  1  0
 36 59  1  0
 36 60  1  0
 36 61  1  0
 38 62  1  0
 38 63  1  0
 38 64  1  0
 40 65  1  0
 40 66  1  0
 40 67  1  0
M  END
>  <Name>  (579) 
Lamellarin F

>  <PubChem ID>  (579) 
10076100

>  <CDB ID>  (579) 
CDB0579

>  <Smiles>  (579) 
COC1=C(C=C(C=C1)C2=C3C4=CC(=C(C(=C4CCN3C5=C2C6=CC(=C(C=C6OC5=O)O)OC)O)OC)OC)OC

>  <Chemical class>  (579) 
6,7-Dioxygenated Coumarins

>  <Natural source>  (579) 
Didemnum chartaceum

>  <Molecular Formula>  (579) 
C30H27NO9

>  <InChI-Key>  (579) 
GSLSPEZTQVEGOE-UHFFFAOYSA-N

>  <Total Molweight>  (579) 
545.542

>  <cLogP>  (579) 
5.138

>  <cLogS>  (579) 
-6.213

>  <H-Acceptors>  (579) 
10

>  <H-Donors>  (579) 
2

>  <Rotatable Bonds>  (579) 
6

>  <Polar Surface Area>  (579) 
117.84

$$$$
CDB0580
     RDKit          3D

 64 69  0  0  0  0  0  0  0  0999 V2000
    0.8760    5.5378   -0.4863 C   0  0  0  0  0  0  0  0  0  0  0  0
    1.2558    4.6024    0.5174 O   0  0  0  0  0  0  0  0  0  0  0  0
    1.0170    3.2803    0.2448 C   0  0  0  0  0  0  0  0  0  0  0  0
    1.4137    2.3893    1.2502 C   0  0  0  0  0  0  0  0  0  0  0  0
    1.2383    1.0164    1.1239 C   0  0  0  0  0  0  0  0  0  0  0  0
    0.6482    0.5110   -0.0373 C   0  0  0  0  0  0  0  0  0  0  0  0
    0.2472    1.3895   -1.0530 C   0  0  0  0  0  0  0  0  0  0  0  0
    0.4300    2.7707   -0.9125 C   0  0  0  0  0  0  0  0  0  0  0  0
    0.4564   -0.9187   -0.1976 C   0  0  0  0  0  0  0  0  0  0  0  0
   -0.7806   -1.5478   -0.0618 C   0  0  0  0  0  0  0  0  0  0  0  0
   -2.1429   -1.0926    0.2819 C   0  0  0  0  0  0  0  0  0  0  0  0
   -2.3887    0.0722    1.0256 C   0  0  0  0  0  0  0  0  0  0  0  0
   -3.6920    0.5040    1.3234 C   0  0  0  0  0  0  0  0  0  0  0  0
   -4.7753   -0.2537    0.8566 C   0  0  0  0  0  0  0  0  0  0  0  0
   -4.5269   -1.4478    0.1607 C   0  0  0  0  0  0  0  0  0  0  0  0
   -3.2323   -1.8860   -0.1195 C   0  0  0  0  0  0  0  0  0  0  0  0
   -2.9774   -3.1589   -0.8893 C   0  0  0  0  0  0  0  0  0  0  0  0
   -1.6754   -3.8312   -0.4516 C   0  0  0  0  0  0  0  0  0  0  0  0
   -0.5738   -2.8793   -0.3860 N   0  0  0  0  0  0  0  0  0  0  0  0
    0.7593   -3.1386   -0.5808 C   0  0  0  0  0  0  0  0  0  0  0  0
    1.4202   -1.9230   -0.5289 C   0  0  0  0  0  0  0  0  0  0  0  0
    2.8489   -1.9202   -0.7911 C   0  0  0  0  0  0  0  0  0  0  0  0
    3.6293   -0.7602   -0.8446 C   0  0  0  0  0  0  0  0  0  0  0  0
    5.0079   -0.8317   -1.0905 C   0  0  0  0  0  0  0  0  0  0  0  0
    5.5997   -2.0849   -1.3107 C   0  0  0  0  0  0  0  0  0  0  0  0
    4.8412   -3.2506   -1.2776 C   0  0  0  0  0  0  0  0  0  0  0  0
    3.4757   -3.1506   -1.0190 C   0  0  0  0  0  0  0  0  0  0  0  0
    2.7524   -4.3688   -1.0111 O   0  0  0  0  0  0  0  0  0  0  0  0
    1.3645   -4.4307   -0.8058 C   0  0  0  0  0  0  0  0  0  0  0  0
    0.7733   -5.5045   -0.8148 O   0  0  0  0  0  0  0  0  0  0  0  0
    6.9444   -2.1546   -1.5601 O   0  0  0  0  0  0  0  0  0  0  0  0
    5.8442    0.2533   -1.1525 O   0  0  0  0  0  0  0  0  0  0  0  0
    5.3300    1.4986   -0.6985 C   0  0  0  0  0  0  0  0  0  0  0  0
   -5.5916   -2.2040   -0.2637 O   0  0  0  0  0  0  0  0  0  0  0  0
   -6.1150    0.0042    1.0368 O   0  0  0  0  0  0  0  0  0  0  0  0
   -6.4923    1.3742    1.1204 C   0  0  0  0  0  0  0  0  0  0  0  0
   -3.9633    1.6178    2.0742 O   0  0  0  0  0  0  0  0  0  0  0  0
   -2.8661    2.3851    2.5566 C   0  0  0  0  0  0  0  0  0  0  0  0
    1.9923    2.8623    2.3969 O   0  0  0  0  0  0  0  0  0  0  0  0
    1.4296    5.3660   -1.4153 H   0  0  0  0  0  0  0  0  0  0  0  0
    1.1340    6.5379   -0.1248 H   0  0  0  0  0  0  0  0  0  0  0  0
   -0.2051    5.5141   -0.6581 H   0  0  0  0  0  0  0  0  0  0  0  0
    1.5573    0.3534    1.9233 H   0  0  0  0  0  0  0  0  0  0  0  0
   -0.2136    0.9999   -1.9591 H   0  0  0  0  0  0  0  0  0  0  0  0
    0.1018    3.4121   -1.7236 H   0  0  0  0  0  0  0  0  0  0  0  0
   -1.5410    0.6320    1.3974 H   0  0  0  0  0  0  0  0  0  0  0  0
   -2.9294   -2.9060   -1.9562 H   0  0  0  0  0  0  0  0  0  0  0  0
   -3.7948   -3.8760   -0.7550 H   0  0  0  0  0  0  0  0  0  0  0  0
   -1.7669   -4.2674    0.5499 H   0  0  0  0  0  0  0  0  0  0  0  0
   -1.4278   -4.6174   -1.1688 H   0  0  0  0  0  0  0  0  0  0  0  0
    3.1623    0.2046   -0.7097 H   0  0  0  0  0  0  0  0  0  0  0  0
    5.2868   -4.2243   -1.4489 H   0  0  0  0  0  0  0  0  0  0  0  0
    7.2012   -3.0814   -1.6843 H   0  0  0  0  0  0  0  0  0  0  0  0
    4.9503    1.4254    0.3263 H   0  0  0  0  0  0  0  0  0  0  0  0
    6.1535    2.2192   -0.6968 H   0  0  0  0  0  0  0  0  0  0  0  0
    4.5608    1.8761   -1.3800 H   0  0  0  0  0  0  0  0  0  0  0  0
   -6.3812   -1.7328    0.0696 H   0  0  0  0  0  0  0  0  0  0  0  0
   -5.9395    2.0022    0.4132 H   0  0  0  0  0  0  0  0  0  0  0  0
   -7.5520    1.4394    0.8540 H   0  0  0  0  0  0  0  0  0  0  0  0
   -6.3941    1.7379    2.1473 H   0  0  0  0  0  0  0  0  0  0  0  0
   -3.2739    3.2303    3.1194 H   0  0  0  0  0  0  0  0  0  0  0  0
   -2.2452    1.7994    3.2422 H   0  0  0  0  0  0  0  0  0  0  0  0
   -2.2748    2.7925    1.7299 H   0  0  0  0  0  0  0  0  0  0  0  0
    2.0296    3.8322    2.2835 H   0  0  0  0  0  0  0  0  0  0  0  0
  1  2  1  0
  2  3  1  0
  3  4  2  0
  4  5  1  0
  5  6  2  0
  6  7  1  0
  7  8  2  0
  6  9  1  0
  9 10  2  0
 10 11  1  0
 11 12  2  0
 12 13  1  0
 13 14  2  0
 14 15  1  0
 15 16  2  0
 16 17  1  0
 17 18  1  0
 18 19  1  0
 19 20  1  0
 20 21  2  0
 21 22  1  0
 22 23  1  0
 23 24  2  0
 24 25  1  0
 25 26  2  0
 26 27  1  0
 27 28  1  0
 28 29  1  0
 29 30  2  0
 25 31  1  0
 24 32  1  0
 32 33  1  0
 15 34  1  0
 14 35  1  0
 35 36  1  0
 13 37  1  0
 37 38  1  0
  4 39  1  0
  8  3  1  0
 21  9  1  0
 19 10  1  0
 16 11  1  0
 29 20  1  0
 27 22  2  0
  1 40  1  0
  1 41  1  0
  1 42  1  0
  5 43  1  0
  7 44  1  0
  8 45  1  0
 12 46  1  0
 17 47  1  0
 17 48  1  0
 18 49  1  0
 18 50  1  0
 23 51  1  0
 26 52  1  0
 31 53  1  0
 33 54  1  0
 33 55  1  0
 33 56  1  0
 34 57  1  0
 36 58  1  0
 36 59  1  0
 36 60  1  0
 38 61  1  0
 38 62  1  0
 38 63  1  0
 39 64  1  0
M  END
>  <Name>  (580) 
Lamellarin E

>  <PubChem ID>  (580) 
5491996

>  <CDB ID>  (580) 
CDB0580

>  <Smiles>  (580) 
COC1=C(C=C(C=C1)C2=C3C4=CC(=C(C(=C4CCN3C5=C2C6=CC(=C(C=C6OC5=O)O)OC)O)OC)OC)O

>  <Chemical class>  (580) 
6,7-Dioxygenated Coumarins

>  <Natural source>  (580) 
Didemnum chartaceum

>  <Molecular Formula>  (580) 
C29H25NO9

>  <InChI-Key>  (580) 
JAYUXAMNSNMXCO-UHFFFAOYSA-N

>  <Total Molweight>  (580) 
531.516

>  <cLogP>  (580) 
4.8623

>  <cLogS>  (580) 
-5.899

>  <H-Acceptors>  (580) 
10

>  <H-Donors>  (580) 
3

>  <Rotatable Bonds>  (580) 
5

>  <Polar Surface Area>  (580) 
128.84

$$$$
CDB0581
     RDKit          3D

 67 72  0  0  0  0  0  0  0  0999 V2000
    0.4378    4.4620   -0.5261 C   0  0  0  0  0  0  0  0  0  0  0  0
    0.9509    4.1650    0.7689 O   0  0  0  0  0  0  0  0  0  0  0  0
    1.1002    2.8373    1.0766 C   0  0  0  0  0  0  0  0  0  0  0  0
    1.4971    2.5766    2.3941 C   0  0  0  0  0  0  0  0  0  0  0  0
    1.6799    1.2811    2.8620 C   0  0  0  0  0  0  0  0  0  0  0  0
    1.4644    0.2104    1.9977 C   0  0  0  0  0  0  0  0  0  0  0  0
    1.0732    0.4493    0.6724 C   0  0  0  0  0  0  0  0  0  0  0  0
    0.8953    1.7640    0.2113 C   0  0  0  0  0  0  0  0  0  0  0  0
    0.8510   -0.6685   -0.2272 C   0  0  0  0  0  0  0  0  0  0  0  0
   -0.4152   -1.0866   -0.6365 C   0  0  0  0  0  0  0  0  0  0  0  0
   -1.7959   -0.6452   -0.3501 C   0  0  0  0  0  0  0  0  0  0  0  0
   -2.1354    0.0649    0.8070 C   0  0  0  0  0  0  0  0  0  0  0  0
   -3.4378    0.5330    1.0228 C   0  0  0  0  0  0  0  0  0  0  0  0
   -4.4489    0.2147    0.0986 C   0  0  0  0  0  0  0  0  0  0  0  0
   -4.1298   -0.5305   -1.0514 C   0  0  0  0  0  0  0  0  0  0  0  0
   -2.8105   -0.9648   -1.2752 C   0  0  0  0  0  0  0  0  0  0  0  0
   -2.4390   -1.7334   -2.5257 C   0  0  0  0  0  0  0  0  0  0  0  0
   -1.3092   -2.7305   -2.2659 C   0  0  0  0  0  0  0  0  0  0  0  0
   -0.2062   -2.1129   -1.5432 N   0  0  0  0  0  0  0  0  0  0  0  0
    1.1219   -2.4493   -1.6119 C   0  0  0  0  0  0  0  0  0  0  0  0
    1.8143   -1.5160   -0.8601 C   0  0  0  0  0  0  0  0  0  0  0  0
    3.2646   -1.5952   -0.8552 C   0  0  0  0  0  0  0  0  0  0  0  0
    4.0921   -0.6562   -0.2254 C   0  0  0  0  0  0  0  0  0  0  0  0
    5.4827   -0.8033   -0.2559 C   0  0  0  0  0  0  0  0  0  0  0  0
    6.0391   -1.8921   -0.9393 C   0  0  0  0  0  0  0  0  0  0  0  0
    5.2453   -2.8252   -1.5879 C   0  0  0  0  0  0  0  0  0  0  0  0
    3.8639   -2.6612   -1.5413 C   0  0  0  0  0  0  0  0  0  0  0  0
    3.0952   -3.6238   -2.2409 O   0  0  0  0  0  0  0  0  0  0  0  0
    1.6961   -3.5599   -2.3359 C   0  0  0  0  0  0  0  0  0  0  0  0
    1.0650   -4.3986   -2.9691 O   0  0  0  0  0  0  0  0  0  0  0  0
    7.3969   -2.0537   -0.9855 O   0  0  0  0  0  0  0  0  0  0  0  0
    6.3950    0.0394    0.3278 O   0  0  0  0  0  0  0  0  0  0  0  0
    5.8697    1.1260    1.0845 C   0  0  0  0  0  0  0  0  0  0  0  0
   -5.0363   -0.8195   -2.0442 O   0  0  0  0  0  0  0  0  0  0  0  0
   -6.2267   -1.4492   -1.5766 C   0  0  0  0  0  0  0  0  0  0  0  0
   -5.7335    0.6928    0.2081 O   0  0  0  0  0  0  0  0  0  0  0  0
   -6.3485    0.4251    1.4670 C   0  0  0  0  0  0  0  0  0  0  0  0
   -3.7840    1.2988    2.1082 O   0  0  0  0  0  0  0  0  0  0  0  0
   -2.7362    2.0222    2.7468 C   0  0  0  0  0  0  0  0  0  0  0  0
    1.7107    3.6110    3.2641 O   0  0  0  0  0  0  0  0  0  0  0  0
    0.3287    5.5482   -0.6002 H   0  0  0  0  0  0  0  0  0  0  0  0
   -0.5522    4.0166   -0.6713 H   0  0  0  0  0  0  0  0  0  0  0  0
    1.1355    4.1430   -1.3072 H   0  0  0  0  0  0  0  0  0  0  0  0
    1.9834    1.1094    3.8905 H   0  0  0  0  0  0  0  0  0  0  0  0
    1.5995   -0.8074    2.3575 H   0  0  0  0  0  0  0  0  0  0  0  0
    0.5919    1.9135   -0.8202 H   0  0  0  0  0  0  0  0  0  0  0  0
   -1.3748    0.2499    1.5537 H   0  0  0  0  0  0  0  0  0  0  0  0
   -3.2946   -2.2907   -2.9224 H   0  0  0  0  0  0  0  0  0  0  0  0
   -2.1325   -1.0073   -3.2894 H   0  0  0  0  0  0  0  0  0  0  0  0
   -0.9444   -3.1058   -3.2251 H   0  0  0  0  0  0  0  0  0  0  0  0
   -1.6504   -3.5717   -1.6515 H   0  0  0  0  0  0  0  0  0  0  0  0
    3.6532    0.1949    0.2751 H   0  0  0  0  0  0  0  0  0  0  0  0
    5.6939   -3.6569   -2.1206 H   0  0  0  0  0  0  0  0  0  0  0  0
    7.7612   -1.3004   -0.4807 H   0  0  0  0  0  0  0  0  0  0  0  0
    5.3095    1.8161    0.4451 H   0  0  0  0  0  0  0  0  0  0  0  0
    5.2552    0.7679    1.9172 H   0  0  0  0  0  0  0  0  0  0  0  0
    6.7154    1.6766    1.5076 H   0  0  0  0  0  0  0  0  0  0  0  0
   -6.5656   -2.1371   -2.3576 H   0  0  0  0  0  0  0  0  0  0  0  0
   -7.0146   -0.7050   -1.4297 H   0  0  0  0  0  0  0  0  0  0  0  0
   -6.0687   -2.0354   -0.6641 H   0  0  0  0  0  0  0  0  0  0  0  0
   -5.9512   -0.4728    1.9543 H   0  0  0  0  0  0  0  0  0  0  0  0
   -7.4146    0.2575    1.2845 H   0  0  0  0  0  0  0  0  0  0  0  0
   -6.2611    1.2962    2.1226 H   0  0  0  0  0  0  0  0  0  0  0  0
   -2.1304    2.5785    2.0235 H   0  0  0  0  0  0  0  0  0  0  0  0
   -3.1981    2.7491    3.4219 H   0  0  0  0  0  0  0  0  0  0  0  0
   -2.1168    1.3543    3.3535 H   0  0  0  0  0  0  0  0  0  0  0  0
    1.5331    4.4205    2.7458 H   0  0  0  0  0  0  0  0  0  0  0  0
  1  2  1  0
  2  3  1  0
  3  4  2  0
  4  5  1  0
  5  6  2  0
  6  7  1  0
  7  8  2  0
  7  9  1  0
  9 10  2  0
 10 11  1  0
 11 12  2  0
 12 13  1  0
 13 14  2  0
 14 15  1  0
 15 16  2  0
 16 17  1  0
 17 18  1  0
 18 19  1  0
 19 20  1  0
 20 21  2  0
 21 22  1  0
 22 23  1  0
 23 24  2  0
 24 25  1  0
 25 26  2  0
 26 27  1  0
 27 28  1  0
 28 29  1  0
 29 30  2  0
 25 31  1  0
 24 32  1  0
 32 33  1  0
 15 34  1  0
 34 35  1  0
 14 36  1  0
 36 37  1  0
 13 38  1  0
 38 39  1  0
  4 40  1  0
  8  3  1  0
 21  9  1  0
 19 10  1  0
 16 11  1  0
 29 20  1  0
 27 22  2  0
  1 41  1  0
  1 42  1  0
  1 43  1  0
  5 44  1  0
  6 45  1  0
  8 46  1  0
 12 47  1  0
 17 48  1  0
 17 49  1  0
 18 50  1  0
 18 51  1  0
 23 52  1  0
 26 53  1  0
 31 54  1  0
 33 55  1  0
 33 56  1  0
 33 57  1  0
 35 58  1  0
 35 59  1  0
 35 60  1  0
 37 61  1  0
 37 62  1  0
 37 63  1  0
 39 64  1  0
 39 65  1  0
 39 66  1  0
 40 67  1  0
M  END
>  <Name>  (581) 
Lamellarin C

>  <PubChem ID>  (581) 
5353706

>  <CDB ID>  (581) 
CDB0581

>  <Smiles>  (581) 
COC1=C(C=CC(=C1)C2=C3C4=CC(=C(C(=C4CCN3C5=C2C6=CC(=C(C=C6OC5=O)O)OC)OC)OC)OC)O

>  <Chemical class>  (581) 
6,7-Dioxygenated Coumarins

>  <Natural source>  (581) 
Lamellaria sp.

>  <Molecular Formula>  (581) 
C30H27NO9

>  <InChI-Key>  (581) 
ZCBPXPBGAXIGDM-UHFFFAOYSA-N

>  <Total Molweight>  (581) 
545.542

>  <cLogP>  (581) 
5.138

>  <cLogS>  (581) 
-6.213

>  <H-Acceptors>  (581) 
10

>  <H-Donors>  (581) 
2

>  <Rotatable Bonds>  (581) 
6

>  <Polar Surface Area>  (581) 
117.84

$$$$
CDB0582
     RDKit          3D

 51 56  0  0  0  0  0  0  0  0999 V2000
    0.1634    2.3778   -0.7421 C   0  0  0  0  0  0  0  0  0  0  0  0
    0.3777    3.6821   -0.2841 C   0  0  0  0  0  0  0  0  0  0  0  0
    0.6469    3.8908    1.0627 C   0  0  0  0  0  0  0  0  0  0  0  0
    0.7032    2.8149    1.9448 C   0  0  0  0  0  0  0  0  0  0  0  0
    0.4979    1.5166    1.4993 C   0  0  0  0  0  0  0  0  0  0  0  0
    0.2252    1.2896    0.1435 C   0  0  0  0  0  0  0  0  0  0  0  0
   -0.0137   -0.0675   -0.3347 C   0  0  0  0  0  0  0  0  0  0  0  0
    0.8763   -1.0763   -0.5234 C   0  0  0  0  0  0  0  0  0  0  0  0
    2.3513   -1.1869   -0.3346 C   0  0  0  0  0  0  0  0  0  0  0  0
    3.1778   -0.1122    0.0194 C   0  0  0  0  0  0  0  0  0  0  0  0
    4.5481   -0.3007    0.1649 C   0  0  0  0  0  0  0  0  0  0  0  0
    5.1313   -1.5446   -0.0438 C   0  0  0  0  0  0  0  0  0  0  0  0
    4.3500   -2.6269   -0.4185 C   0  0  0  0  0  0  0  0  0  0  0  0
    2.9647   -2.4525   -0.5753 C   0  0  0  0  0  0  0  0  0  0  0  0
    2.1579   -3.6032   -1.0170 C   0  0  0  0  0  0  0  0  0  0  0  0
    0.8456   -3.4265   -1.2063 C   0  0  0  0  0  0  0  0  0  0  0  0
    0.2114   -2.2227   -1.0055 N   0  0  0  0  0  0  0  0  0  0  0  0
   -1.2345   -2.0110   -0.9093 C   0  0  0  0  0  0  0  0  0  0  0  0
   -1.3451   -0.4759   -0.9342 C   0  0  0  0  0  0  0  0  0  0  0  0
   -2.7092   -0.1853   -0.3789 C   0  0  0  0  0  0  0  0  0  0  0  0
   -3.0483    0.8172    0.5289 C   0  0  0  0  0  0  0  0  0  0  0  0
   -4.3832    0.9848    0.8921 C   0  0  0  0  0  0  0  0  0  0  0  0
   -5.3827    0.1552    0.3834 C   0  0  0  0  0  0  0  0  0  0  0  0
   -5.0791   -0.8289   -0.5416 C   0  0  0  0  0  0  0  0  0  0  0  0
   -3.7461   -0.9893   -0.9060 C   0  0  0  0  0  0  0  0  0  0  0  0
   -3.4537   -2.0062   -1.8577 O   0  0  0  0  0  0  0  0  0  0  0  0
   -2.1473   -2.5227   -1.9938 C   0  0  0  0  0  0  0  0  0  0  0  0
   -1.8718   -3.3435   -2.8600 O   0  0  0  0  0  0  0  0  0  0  0  0
   -6.6725    0.2852    0.8098 O   0  0  0  0  0  0  0  0  0  0  0  0
   -4.7063    2.0086    1.7365 O   0  0  0  0  0  0  0  0  0  0  0  0
    6.4850   -1.6488    0.1207 O   0  0  0  0  0  0  0  0  0  0  0  0
    5.3315    0.7643    0.5127 O   0  0  0  0  0  0  0  0  0  0  0  0
    0.9629    3.0316    3.2678 O   0  0  0  0  0  0  0  0  0  0  0  0
    0.8647    5.1414    1.5708 O   0  0  0  0  0  0  0  0  0  0  0  0
   -0.0398    2.2149   -1.7985 H   0  0  0  0  0  0  0  0  0  0  0  0
    0.3319    4.5072   -0.9873 H   0  0  0  0  0  0  0  0  0  0  0  0
    0.5506    0.6932    2.2065 H   0  0  0  0  0  0  0  0  0  0  0  0
    2.7934    0.8868    0.1756 H   0  0  0  0  0  0  0  0  0  0  0  0
    4.7996   -3.5974   -0.6002 H   0  0  0  0  0  0  0  0  0  0  0  0
    2.6285   -4.5640   -1.1832 H   0  0  0  0  0  0  0  0  0  0  0  0
    0.2079   -4.2467   -1.5247 H   0  0  0  0  0  0  0  0  0  0  0  0
   -1.5702   -2.4516    0.0424 H   0  0  0  0  0  0  0  0  0  0  0  0
   -1.3463   -0.0957   -1.9694 H   0  0  0  0  0  0  0  0  0  0  0  0
   -2.3114    1.4899    0.9522 H   0  0  0  0  0  0  0  0  0  0  0  0
   -5.8552   -1.4654   -0.9528 H   0  0  0  0  0  0  0  0  0  0  0  0
   -6.6248    0.5224    1.7548 H   0  0  0  0  0  0  0  0  0  0  0  0
   -5.5486    2.3765    1.4113 H   0  0  0  0  0  0  0  0  0  0  0  0
    6.7418   -2.5705   -0.0546 H   0  0  0  0  0  0  0  0  0  0  0  0
    6.2360    0.3968    0.5649 H   0  0  0  0  0  0  0  0  0  0  0  0
    1.0901    3.9986    3.3377 H   0  0  0  0  0  0  0  0  0  0  0  0
    0.8374    5.7763    0.8346 H   0  0  0  0  0  0  0  0  0  0  0  0
  1  2  2  0
  2  3  1  0
  3  4  2  0
  4  5  1  0
  5  6  2  0
  6  7  1  0
  7  8  2  0
  8  9  1  0
  9 10  1  0
 10 11  2  0
 11 12  1  0
 12 13  2  0
 13 14  1  0
 14 15  1  0
 15 16  2  0
 16 17  1  0
 17 18  1  0
 18 19  1  0
 19 20  1  0
 20 21  1  0
 21 22  2  0
 22 23  1  0
 23 24  2  0
 24 25  1  0
 25 26  1  0
 26 27  1  0
 27 28  2  0
 23 29  1  0
 22 30  1  0
 12 31  1  0
 11 32  1  0
  4 33  1  0
  3 34  1  0
  6  1  1  0
 19  7  1  0
 17  8  1  0
 14  9  2  0
 27 18  1  0
 25 20  2  0
  1 35  1  0
  2 36  1  0
  5 37  1  0
 10 38  1  0
 13 39  1  0
 15 40  1  0
 16 41  1  0
 18 42  1  0
 19 43  1  0
 21 44  1  0
 24 45  1  0
 29 46  1  0
 30 47  1  0
 31 48  1  0
 32 49  1  0
 33 50  1  0
 34 51  1  0
M  END
>  <Name>  (582) 
Lamellarin H

>  <PubChem ID>  (582) 
460908

>  <CDB ID>  (582) 
CDB0582

>  <Smiles>  (582) 
C1=CC(=C(C=C1C2=C3C4=CC(=C(C=C4C=CN3C5C2C6=CC(=C(C=C6OC5=O)O)O)O)O)O)O

>  <Chemical class>  (582) 
6,7-Dioxygenated Coumarins

>  <Natural source>  (582) 
Didemnum chartaceum

>  <Molecular Formula>  (582) 
C25H17NO8

>  <InChI-Key>  (582) 
KIRMMCLRVYLQSV-UHFFFAOYSA-N

>  <Total Molweight>  (582) 
459.409

>  <cLogP>  (582) 
2.6264

>  <cLogS>  (582) 
-3.377

>  <H-Acceptors>  (582) 
9

>  <H-Donors>  (582) 
6

>  <Rotatable Bonds>  (582) 
1

>  <Polar Surface Area>  (582) 
150.92

$$$$
CDB0583
     RDKit          3D

 58 63  0  0  0  0  0  0  0  0999 V2000
    0.0309    2.8074   -3.4103 C   0  0  0  0  0  0  0  0  0  0  0  0
   -0.2756    3.4607   -2.1827 O   0  0  0  0  0  0  0  0  0  0  0  0
   -0.2921    2.6768   -1.0583 C   0  0  0  0  0  0  0  0  0  0  0  0
   -0.5925    3.3545    0.1302 C   0  0  0  0  0  0  0  0  0  0  0  0
   -0.6469    2.6996    1.3549 C   0  0  0  0  0  0  0  0  0  0  0  0
   -0.3982    1.3301    1.4050 C   0  0  0  0  0  0  0  0  0  0  0  0
   -0.1019    0.6324    0.2259 C   0  0  0  0  0  0  0  0  0  0  0  0
   -0.0433    1.3064   -1.0058 C   0  0  0  0  0  0  0  0  0  0  0  0
    0.1702   -0.7907    0.2789 C   0  0  0  0  0  0  0  0  0  0  0  0
   -0.7992   -1.7785    0.1196 C   0  0  0  0  0  0  0  0  0  0  0  0
   -2.2707   -1.7823   -0.1187 C   0  0  0  0  0  0  0  0  0  0  0  0
   -3.0453   -0.6142   -0.2140 C   0  0  0  0  0  0  0  0  0  0  0  0
   -4.4223   -0.6778   -0.4434 C   0  0  0  0  0  0  0  0  0  0  0  0
   -5.0290   -1.9283   -0.5777 C   0  0  0  0  0  0  0  0  0  0  0  0
   -4.2983   -3.1033   -0.4845 C   0  0  0  0  0  0  0  0  0  0  0  0
   -2.9208   -3.0368   -0.2534 C   0  0  0  0  0  0  0  0  0  0  0  0
   -2.1498   -4.2837   -0.1467 C   0  0  0  0  0  0  0  0  0  0  0  0
   -0.8292   -4.2290    0.0782 C   0  0  0  0  0  0  0  0  0  0  0  0
   -0.1452   -3.0158    0.2121 N   0  0  0  0  0  0  0  0  0  0  0  0
    1.2030   -2.8046    0.4375 C   0  0  0  0  0  0  0  0  0  0  0  0
    1.4241   -1.4387    0.4800 C   0  0  0  0  0  0  0  0  0  0  0  0
    2.7836   -0.9710    0.6967 C   0  0  0  0  0  0  0  0  0  0  0  0
    3.1470    0.3794    0.7579 C   0  0  0  0  0  0  0  0  0  0  0  0
    4.4810    0.7583    0.9672 C   0  0  0  0  0  0  0  0  0  0  0  0
    5.4588   -0.2372    1.1142 C   0  0  0  0  0  0  0  0  0  0  0  0
    5.1215   -1.5854    1.0586 C   0  0  0  0  0  0  0  0  0  0  0  0
    3.7878   -1.9311    0.8508 C   0  0  0  0  0  0  0  0  0  0  0  0
    3.5031   -3.3158    0.8026 O   0  0  0  0  0  0  0  0  0  0  0  0
    2.2107   -3.8278    0.5962 C   0  0  0  0  0  0  0  0  0  0  0  0
    2.0257   -5.0390    0.5628 O   0  0  0  0  0  0  0  0  0  0  0  0
    6.7621    0.1306    1.3161 O   0  0  0  0  0  0  0  0  0  0  0  0
    4.9231    2.0540    1.0382 O   0  0  0  0  0  0  0  0  0  0  0  0
    3.9523    3.0889    0.9524 C   0  0  0  0  0  0  0  0  0  0  0  0
   -6.3755   -2.0200   -0.8042 O   0  0  0  0  0  0  0  0  0  0  0  0
   -5.2726    0.3935   -0.5558 O   0  0  0  0  0  0  0  0  0  0  0  0
   -4.6974    1.6872   -0.3972 C   0  0  0  0  0  0  0  0  0  0  0  0
   -0.8430    4.6995    0.1090 O   0  0  0  0  0  0  0  0  0  0  0  0
    1.0383    2.3786   -3.3877 H   0  0  0  0  0  0  0  0  0  0  0  0
   -0.7193    2.0465   -3.6496 H   0  0  0  0  0  0  0  0  0  0  0  0
    0.0069    3.5604   -4.2038 H   0  0  0  0  0  0  0  0  0  0  0  0
   -0.8802    3.2526    2.2601 H   0  0  0  0  0  0  0  0  0  0  0  0
   -0.4385    0.8099    2.3596 H   0  0  0  0  0  0  0  0  0  0  0  0
    0.1938    0.7352   -1.8979 H   0  0  0  0  0  0  0  0  0  0  0  0
   -2.5780    0.3514   -0.1067 H   0  0  0  0  0  0  0  0  0  0  0  0
   -4.8083   -4.0563   -0.5907 H   0  0  0  0  0  0  0  0  0  0  0  0
   -2.6636   -5.2336   -0.2486 H   0  0  0  0  0  0  0  0  0  0  0  0
   -0.2560   -5.1444    0.1599 H   0  0  0  0  0  0  0  0  0  0  0  0
    2.3928    1.1435    0.6418 H   0  0  0  0  0  0  0  0  0  0  0  0
    5.8684   -2.3635    1.1721 H   0  0  0  0  0  0  0  0  0  0  0  0
    7.3118   -0.6629    1.4092 H   0  0  0  0  0  0  0  0  0  0  0  0
    3.4572    3.0849   -0.0243 H   0  0  0  0  0  0  0  0  0  0  0  0
    4.4735    4.0454    1.0562 H   0  0  0  0  0  0  0  0  0  0  0  0
    3.2238    3.0174    1.7668 H   0  0  0  0  0  0  0  0  0  0  0  0
   -6.6916   -1.0955   -0.8277 H   0  0  0  0  0  0  0  0  0  0  0  0
   -3.9576    1.8882   -1.1791 H   0  0  0  0  0  0  0  0  0  0  0  0
   -4.2639    1.8072    0.6012 H   0  0  0  0  0  0  0  0  0  0  0  0
   -5.5001    2.4234   -0.5019 H   0  0  0  0  0  0  0  0  0  0  0  0
   -0.7453    4.9636   -0.8270 H   0  0  0  0  0  0  0  0  0  0  0  0
  1  2  1  0
  2  3  1  0
  3  4  2  0
  4  5  1  0
  5  6  2  0
  6  7  1  0
  7  8  2  0
  7  9  1  0
  9 10  2  0
 10 11  1  0
 11 12  2  0
 12 13  1  0
 13 14  2  0
 14 15  1  0
 15 16  2  0
 16 17  1  0
 17 18  2  0
 18 19  1  0
 19 20  1  0
 20 21  2  0
 21 22  1  0
 22 23  1  0
 23 24  2  0
 24 25  1  0
 25 26  2  0
 26 27  1  0
 27 28  1  0
 28 29  1  0
 29 30  2  0
 25 31  1  0
 24 32  1  0
 32 33  1  0
 14 34  1  0
 13 35  1  0
 35 36  1  0
  4 37  1  0
  8  3  1  0
 21  9  1  0
 19 10  1  0
 16 11  1  0
 29 20  1  0
 27 22  2  0
  1 38  1  0
  1 39  1  0
  1 40  1  0
  5 41  1  0
  6 42  1  0
  8 43  1  0
 12 44  1  0
 15 45  1  0
 17 46  1  0
 18 47  1  0
 23 48  1  0
 26 49  1  0
 31 50  1  0
 33 51  1  0
 33 52  1  0
 33 53  1  0
 34 54  1  0
 36 55  1  0
 36 56  1  0
 36 57  1  0
 37 58  1  0
M  END
>  <Name>  (583) 
Lamellarin D

>  <PubChem ID>  (583) 
9892144

>  <CDB ID>  (583) 
CDB0583

>  <Smiles>  (583) 
COC1=C(C=CC(=C1)C2=C3C4=CC(=C(C=C4C=CN3C5=C2C6=CC(=C(C=C6OC5=O)O)OC)O)OC)O

>  <Chemical class>  (583) 
6,7-Dioxygenated Coumarins

>  <Natural source>  (583) 
Lamellaria sp.

>  <Molecular Formula>  (583) 
C28H21NO8

>  <InChI-Key>  (583) 
ATHLLZUXVPNPAW-UHFFFAOYSA-N

>  <Total Molweight>  (583) 
499.474

>  <cLogP>  (583) 
4.3105

>  <cLogS>  (583) 
-8.199

>  <H-Acceptors>  (583) 
9

>  <H-Donors>  (583) 
3

>  <Rotatable Bonds>  (583) 
4

>  <Polar Surface Area>  (583) 
119.09

$$$$
CDB0584
     RDKit          3D

 65 70  0  0  0  0  0  0  0  0999 V2000
   -2.0389    1.5220    3.8367 C   0  0  0  0  0  0  0  0  0  0  0  0
   -2.3006    2.4390    2.7791 O   0  0  0  0  0  0  0  0  0  0  0  0
   -1.9438    2.0383    1.5178 C   0  0  0  0  0  0  0  0  0  0  0  0
   -2.1796    2.9812    0.5091 C   0  0  0  0  0  0  0  0  0  0  0  0
   -1.8714    2.7250   -0.8218 C   0  0  0  0  0  0  0  0  0  0  0  0
   -1.3122    1.4968   -1.1658 C   0  0  0  0  0  0  0  0  0  0  0  0
   -1.0664    0.5404   -0.1708 C   0  0  0  0  0  0  0  0  0  0  0  0
   -1.3866    0.8087    1.1709 C   0  0  0  0  0  0  0  0  0  0  0  0
   -0.5050   -0.7470   -0.5308 C   0  0  0  0  0  0  0  0  0  0  0  0
    0.8589   -1.0343   -0.5373 C   0  0  0  0  0  0  0  0  0  0  0  0
    2.1023   -0.2633   -0.2401 C   0  0  0  0  0  0  0  0  0  0  0  0
    2.0943    1.0921    0.1274 C   0  0  0  0  0  0  0  0  0  0  0  0
    3.2767    1.7832    0.4166 C   0  0  0  0  0  0  0  0  0  0  0  0
    4.4991    1.1033    0.3398 C   0  0  0  0  0  0  0  0  0  0  0  0
    4.5455   -0.2342   -0.0759 C   0  0  0  0  0  0  0  0  0  0  0  0
    3.3515   -0.9305   -0.3392 C   0  0  0  0  0  0  0  0  0  0  0  0
    3.3809   -2.3518   -0.7350 C   0  0  0  0  0  0  0  0  0  0  0  0
    2.2392   -3.0012   -1.0012 C   0  0  0  0  0  0  0  0  0  0  0  0
    0.9918   -2.3785   -0.9131 N   0  0  0  0  0  0  0  0  0  0  0  0
   -0.2603   -2.9154   -1.1504 C   0  0  0  0  0  0  0  0  0  0  0  0
   -1.2027   -1.9286   -0.9187 C   0  0  0  0  0  0  0  0  0  0  0  0
   -2.6063   -2.2659   -1.0953 C   0  0  0  0  0  0  0  0  0  0  0  0
   -3.6591   -1.3631   -0.8928 C   0  0  0  0  0  0  0  0  0  0  0  0
   -4.9863   -1.7631   -1.0821 C   0  0  0  0  0  0  0  0  0  0  0  0
   -5.2520   -3.0804   -1.4748 C   0  0  0  0  0  0  0  0  0  0  0  0
   -4.2314   -3.9944   -1.6830 C   0  0  0  0  0  0  0  0  0  0  0  0
   -2.9189   -3.5726   -1.4903 C   0  0  0  0  0  0  0  0  0  0  0  0
   -1.9117   -4.5394   -1.7161 O   0  0  0  0  0  0  0  0  0  0  0  0
   -0.5413   -4.2717   -1.5636 C   0  0  0  0  0  0  0  0  0  0  0  0
    0.2872   -5.1498   -1.7750 O   0  0  0  0  0  0  0  0  0  0  0  0
   -6.5415   -3.4955   -1.6643 O   0  0  0  0  0  0  0  0  0  0  0  0
   -6.0969   -0.9746   -0.9162 O   0  0  0  0  0  0  0  0  0  0  0  0
   -5.8707    0.3838   -0.5513 C   0  0  0  0  0  0  0  0  0  0  0  0
    5.7354   -0.9194   -0.1711 O   0  0  0  0  0  0  0  0  0  0  0  0
    6.5928   -0.3620   -1.1687 C   0  0  0  0  0  0  0  0  0  0  0  0
    5.6635    1.7756    0.6298 O   0  0  0  0  0  0  0  0  0  0  0  0
    5.9739    1.6244    2.0151 C   0  0  0  0  0  0  0  0  0  0  0  0
    3.3380    3.1000    0.7974 O   0  0  0  0  0  0  0  0  0  0  0  0
    2.1320    3.8533    0.7622 C   0  0  0  0  0  0  0  0  0  0  0  0
   -2.7274    4.1960    0.8194 O   0  0  0  0  0  0  0  0  0  0  0  0
   -0.9677    1.3103    3.9194 H   0  0  0  0  0  0  0  0  0  0  0  0
   -2.3593    1.9914    4.7718 H   0  0  0  0  0  0  0  0  0  0  0  0
   -2.6173    0.6009    3.7106 H   0  0  0  0  0  0  0  0  0  0  0  0
   -2.0652    3.4765   -1.5817 H   0  0  0  0  0  0  0  0  0  0  0  0
   -1.0682    1.2880   -2.2052 H   0  0  0  0  0  0  0  0  0  0  0  0
   -1.1876    0.0427    1.9140 H   0  0  0  0  0  0  0  0  0  0  0  0
    1.1572    1.6207    0.1967 H   0  0  0  0  0  0  0  0  0  0  0  0
    4.3377   -2.8587   -0.8050 H   0  0  0  0  0  0  0  0  0  0  0  0
    2.2661   -4.0444   -1.2921 H   0  0  0  0  0  0  0  0  0  0  0  0
   -3.4483   -0.3489   -0.5882 H   0  0  0  0  0  0  0  0  0  0  0  0
   -4.4547   -5.0111   -1.9888 H   0  0  0  0  0  0  0  0  0  0  0  0
   -7.0938   -2.7122   -1.4731 H   0  0  0  0  0  0  0  0  0  0  0  0
   -5.3864    0.4530    0.4284 H   0  0  0  0  0  0  0  0  0  0  0  0
   -6.8455    0.8751   -0.4761 H   0  0  0  0  0  0  0  0  0  0  0  0
   -5.2917    0.9079   -1.3189 H   0  0  0  0  0  0  0  0  0  0  0  0
    6.0388    0.0892   -2.0003 H   0  0  0  0  0  0  0  0  0  0  0  0
    7.2005   -1.1764   -1.5750 H   0  0  0  0  0  0  0  0  0  0  0  0
    7.2734    0.3672   -0.7202 H   0  0  0  0  0  0  0  0  0  0  0  0
    6.8979    2.1762    2.2121 H   0  0  0  0  0  0  0  0  0  0  0  0
    6.1473    0.5735    2.2713 H   0  0  0  0  0  0  0  0  0  0  0  0
    5.1870    2.0455    2.6504 H   0  0  0  0  0  0  0  0  0  0  0  0
    1.6962    3.8599   -0.2425 H   0  0  0  0  0  0  0  0  0  0  0  0
    2.3767    4.8870    1.0248 H   0  0  0  0  0  0  0  0  0  0  0  0
    1.4165    3.4833    1.5037 H   0  0  0  0  0  0  0  0  0  0  0  0
   -2.8616    4.1772    1.7874 H   0  0  0  0  0  0  0  0  0  0  0  0
  1  2  1  0
  2  3  1  0
  3  4  2  0
  4  5  1  0
  5  6  2  0
  6  7  1  0
  7  8  2  0
  7  9  1  0
  9 10  2  0
 10 11  1  0
 11 12  2  0
 12 13  1  0
 13 14  2  0
 14 15  1  0
 15 16  2  0
 16 17  1  0
 17 18  2  0
 18 19  1  0
 19 20  1  0
 20 21  2  0
 21 22  1  0
 22 23  1  0
 23 24  2  0
 24 25  1  0
 25 26  2  0
 26 27  1  0
 27 28  1  0
 28 29  1  0
 29 30  2  0
 25 31  1  0
 24 32  1  0
 32 33  1  0
 15 34  1  0
 34 35  1  0
 14 36  1  0
 36 37  1  0
 13 38  1  0
 38 39  1  0
  4 40  1  0
  8  3  1  0
 21  9  1  0
 19 10  1  0
 16 11  1  0
 29 20  1  0
 27 22  2  0
  1 41  1  0
  1 42  1  0
  1 43  1  0
  5 44  1  0
  6 45  1  0
  8 46  1  0
 12 47  1  0
 17 48  1  0
 18 49  1  0
 23 50  1  0
 26 51  1  0
 31 52  1  0
 33 53  1  0
 33 54  1  0
 33 55  1  0
 35 56  1  0
 35 57  1  0
 35 58  1  0
 37 59  1  0
 37 60  1  0
 37 61  1  0
 39 62  1  0
 39 63  1  0
 39 64  1  0
 40 65  1  0
M  END
>  <Name>  (584) 
Lamellarin B

>  <PubChem ID>  (584) 
10076040

>  <CDB ID>  (584) 
CDB0584

>  <Smiles>  (584) 
COC1=C(C=CC(=C1)C2=C3C4=CC(=C(C(=C4C=CN3C5=C2C6=CC(=C(C=C6OC5=O)O)OC)OC)OC)OC)O

>  <Chemical class>  (584) 
6,7-Dioxygenated Coumarins

>  <Natural source>  (584) 
Lamellaria sp.

>  <Molecular Formula>  (584) 
C30H25NO9

>  <InChI-Key>  (584) 
PWRVNSDJDNLXEO-UHFFFAOYSA-N

>  <Total Molweight>  (584) 
543.527

>  <cLogP>  (584) 
4.5162

>  <cLogS>  (584) 
-8.531

>  <H-Acceptors>  (584) 
10

>  <H-Donors>  (584) 
2

>  <Rotatable Bonds>  (584) 
6

>  <Polar Surface Area>  (584) 
117.32

$$$$
CDB0585
     RDKit          3D

 65 70  0  0  0  0  0  0  0  0999 V2000
   -3.0183    2.8057    1.8261 C   0  0  0  0  0  0  0  0  0  0  0  0
   -3.9783    2.0042    1.1460 O   0  0  0  0  0  0  0  0  0  0  0  0
   -3.5050    1.0147    0.3215 C   0  0  0  0  0  0  0  0  0  0  0  0
   -2.1875    0.5399    0.3664 C   0  0  0  0  0  0  0  0  0  0  0  0
   -1.7175   -0.4167   -0.5438 C   0  0  0  0  0  0  0  0  0  0  0  0
   -2.6179   -0.9696   -1.4739 C   0  0  0  0  0  0  0  0  0  0  0  0
   -2.1244   -2.0040   -2.4645 C   0  0  0  0  0  0  0  0  0  0  0  0
   -0.9693   -2.8607   -1.9306 C   0  0  2  0  0  0  0  0  0  0  0  0
   -1.4519   -3.9254   -1.1135 O   0  0  0  0  0  0  0  0  0  0  0  0
   -0.0057   -2.0865   -1.1552 N   0  0  0  0  0  0  0  0  0  0  0  0
    1.2988   -2.4325   -0.9061 C   0  0  0  0  0  0  0  0  0  0  0  0
    1.9099   -1.3369   -0.3293 C   0  0  0  0  0  0  0  0  0  0  0  0
    3.3382   -1.4206   -0.0839 C   0  0  0  0  0  0  0  0  0  0  0  0
    4.1064   -0.3520    0.3957 C   0  0  0  0  0  0  0  0  0  0  0  0
    5.4791   -0.5091    0.6126 C   0  0  0  0  0  0  0  0  0  0  0  0
    6.3350    0.4529    1.0867 O   0  0  0  0  0  0  0  0  0  0  0  0
    5.7530    1.6966    1.4664 C   0  0  0  0  0  0  0  0  0  0  0  0
    6.0794   -1.7422    0.3256 C   0  0  0  0  0  0  0  0  0  0  0  0
    7.4217   -1.9163    0.5253 O   0  0  0  0  0  0  0  0  0  0  0  0
    5.3469   -2.8107   -0.1682 C   0  0  0  0  0  0  0  0  0  0  0  0
    3.9816   -2.6349   -0.3715 C   0  0  0  0  0  0  0  0  0  0  0  0
    3.2779   -3.7486   -0.8977 O   0  0  0  0  0  0  0  0  0  0  0  0
    1.9097   -3.7038   -1.1974 C   0  0  0  0  0  0  0  0  0  0  0  0
    1.3083   -4.6780   -1.6378 O   0  0  0  0  0  0  0  0  0  0  0  0
    0.8926   -0.3622   -0.0825 C   0  0  0  0  0  0  0  0  0  0  0  0
    1.0186    0.9419    0.5431 C   0  0  0  0  0  0  0  0  0  0  0  0
    0.9342    2.1035   -0.2378 C   0  0  0  0  0  0  0  0  0  0  0  0
    1.0569    3.3416    0.3801 C   0  0  0  0  0  0  0  0  0  0  0  0
    0.9726    4.5119   -0.3221 O   0  0  0  0  0  0  0  0  0  0  0  0
    1.2683    3.4271    1.7549 C   0  0  0  0  0  0  0  0  0  0  0  0
    1.3886    4.6497    2.3498 O   0  0  0  0  0  0  0  0  0  0  0  0
    1.3550    2.2848    2.5371 C   0  0  0  0  0  0  0  0  0  0  0  0
    1.2282    1.0350    1.9293 C   0  0  0  0  0  0  0  0  0  0  0  0
   -0.3173   -0.8831   -0.5473 C   0  0  0  0  0  0  0  0  0  0  0  0
   -3.9490   -0.5180   -1.5093 C   0  0  0  0  0  0  0  0  0  0  0  0
   -4.7525   -1.0343   -2.4993 O   0  0  0  0  0  0  0  0  0  0  0  0
   -5.8807   -1.7331   -1.9743 C   0  0  0  0  0  0  0  0  0  0  0  0
   -4.3993    0.4671   -0.6132 C   0  0  0  0  0  0  0  0  0  0  0  0
   -5.6892    0.9168   -0.7694 O   0  0  0  0  0  0  0  0  0  0  0  0
   -6.4514    0.9123    0.4361 C   0  0  0  0  0  0  0  0  0  0  0  0
   -3.5511    3.6429    2.2872 H   0  0  0  0  0  0  0  0  0  0  0  0
   -2.5353    2.2388    2.6283 H   0  0  0  0  0  0  0  0  0  0  0  0
   -2.2801    3.2230    1.1331 H   0  0  0  0  0  0  0  0  0  0  0  0
   -1.5162    0.9121    1.1284 H   0  0  0  0  0  0  0  0  0  0  0  0
   -1.7904   -1.4576   -3.3559 H   0  0  0  0  0  0  0  0  0  0  0  0
   -2.9402   -2.6731   -2.7611 H   0  0  0  0  0  0  0  0  0  0  0  0
   -0.4479   -3.2955   -2.7912 H   0  0  0  0  0  0  0  0  0  0  0  0
   -0.7155   -4.5665   -1.0567 H   0  0  0  0  0  0  0  0  0  0  0  0
    3.6374    0.6032    0.5854 H   0  0  0  0  0  0  0  0  0  0  0  0
    6.5524    2.3321    1.8594 H   0  0  0  0  0  0  0  0  0  0  0  0
    5.0132    1.5610    2.2624 H   0  0  0  0  0  0  0  0  0  0  0  0
    5.3169    2.2067    0.6012 H   0  0  0  0  0  0  0  0  0  0  0  0
    7.7431   -1.0589    0.8673 H   0  0  0  0  0  0  0  0  0  0  0  0
    5.8312   -3.7554   -0.3916 H   0  0  0  0  0  0  0  0  0  0  0  0
    0.7684    2.0240   -1.3080 H   0  0  0  0  0  0  0  0  0  0  0  0
    0.7712    4.2974   -1.2503 H   0  0  0  0  0  0  0  0  0  0  0  0
    1.2931    5.2922    1.6179 H   0  0  0  0  0  0  0  0  0  0  0  0
    1.5157    2.3659    3.6079 H   0  0  0  0  0  0  0  0  0  0  0  0
    1.2893    0.1347    2.5376 H   0  0  0  0  0  0  0  0  0  0  0  0
   -5.6957   -2.1585   -0.9809 H   0  0  0  0  0  0  0  0  0  0  0  0
   -6.7542   -1.0753   -1.9530 H   0  0  0  0  0  0  0  0  0  0  0  0
   -6.1048   -2.5601   -2.6552 H   0  0  0  0  0  0  0  0  0  0  0  0
   -6.1147    0.1531    1.1516 H   0  0  0  0  0  0  0  0  0  0  0  0
   -6.4441    1.9069    0.8911 H   0  0  0  0  0  0  0  0  0  0  0  0
   -7.4876    0.6803    0.1709 H   0  0  0  0  0  0  0  0  0  0  0  0
  1  2  1  0
  2  3  1  0
  3  4  1  0
  4  5  2  0
  5  6  1  0
  6  7  1  0
  7  8  1  0
  8  9  1  0
  8 10  1  0
 10 11  1  0
 11 12  2  0
 12 13  1  0
 13 14  1  0
 14 15  2  0
 15 16  1  0
 16 17  1  0
 15 18  1  0
 18 19  1  0
 18 20  2  0
 20 21  1  0
 21 22  1  0
 22 23  1  0
 23 24  2  0
 12 25  1  0
 25 26  1  0
 26 27  2  0
 27 28  1  0
 28 29  1  0
 28 30  2  0
 30 31  1  0
 30 32  1  0
 32 33  2  0
 25 34  2  0
  6 35  2  0
 35 36  1  0
 36 37  1  0
 35 38  1  0
 38 39  1  0
 39 40  1  0
 38  3  2  0
 34  5  1  0
 34 10  1  0
 23 11  1  0
 33 26  1  0
 21 13  2  0
  1 41  1  0
  1 42  1  0
  1 43  1  0
  4 44  1  0
  7 45  1  0
  7 46  1  0
  8 47  1  6
  9 48  1  0
 14 49  1  0
 17 50  1  0
 17 51  1  0
 17 52  1  0
 19 53  1  0
 20 54  1  0
 27 55  1  0
 29 56  1  0
 31 57  1  0
 32 58  1  0
 33 59  1  0
 37 60  1  0
 37 61  1  0
 37 62  1  0
 40 63  1  0
 40 64  1  0
 40 65  1  0
M  END
>  <Name>  (585) 
Lamellarin A

>  <PubChem ID>  (585) 
100967178

>  <CDB ID>  (585) 
CDB0585

>  <Smiles>  (585) 
COC1=CC2=C(C[C@H](O)N3C4=C(C5=CC(OC)=C(O)C=C5OC4=O)C(C4=CC(O)=C(O)C=C4)=C23)C(OC)=C1OC

>  <Chemical class>  (585) 
6,7-Dioxygenated Coumarins

>  <Natural source>  (585) 
Lamellaria sp.

>  <Molecular Formula>  (585) 
C29H25NO10

>  <InChI-Key>  (585) 
HMPXMTZZLLBPOA-QFIPXVFZSA-N

>  <Total Molweight>  (585) 
547.515

>  <cLogP>  (585) 
4.1161

>  <cLogS>  (585) 
-6.7

>  <H-Acceptors>  (585) 
11

>  <H-Donors>  (585) 
4

>  <Rotatable Bonds>  (585) 
5

>  <Polar Surface Area>  (585) 
149.07

$$$$
CDB0586
     RDKit          3D

 19 20  0  0  0  0  0  0  0  0999 V2000
    0.4367    1.8059   -0.0069 C   0  0  0  0  0  0  0  0  0  0  0  0
    1.7950    1.4971    0.1354 C   0  0  0  0  0  0  0  0  0  0  0  0
    2.1928    0.1674    0.2113 C   0  0  0  0  0  0  0  0  0  0  0  0
    1.2573   -0.8578    0.1475 C   0  0  0  0  0  0  0  0  0  0  0  0
   -0.0899   -0.5450    0.0062 C   0  0  0  0  0  0  0  0  0  0  0  0
   -0.5147    0.7810   -0.0723 C   0  0  0  0  0  0  0  0  0  0  0  0
   -1.9348    1.0544   -0.2197 C   0  0  0  0  0  0  0  0  0  0  0  0
   -2.7982    0.0357   -0.2765 C   0  0  0  0  0  0  0  0  0  0  0  0
   -2.3689   -1.3713   -0.1953 C   0  0  0  0  0  0  0  0  0  0  0  0
   -3.1863   -2.2822   -0.2506 O   0  0  0  0  0  0  0  0  0  0  0  0
   -1.0084   -1.6105   -0.0548 O   0  0  0  0  0  0  0  0  0  0  0  0
    1.6986   -2.1501    0.2267 O   0  0  0  0  0  0  0  0  0  0  0  0
    3.5189   -0.1235    0.3499 O   0  0  0  0  0  0  0  0  0  0  0  0
    0.1365    2.8495   -0.0653 H   0  0  0  0  0  0  0  0  0  0  0  0
    2.5376    2.2886    0.1866 H   0  0  0  0  0  0  0  0  0  0  0  0
   -2.2735    2.0830   -0.2814 H   0  0  0  0  0  0  0  0  0  0  0  0
   -3.8640    0.1966   -0.3859 H   0  0  0  0  0  0  0  0  0  0  0  0
    0.9060   -2.7180    0.1643 H   0  0  0  0  0  0  0  0  0  0  0  0
    3.5593   -1.1007    0.3809 H   0  0  0  0  0  0  0  0  0  0  0  0
  1  2  2  0
  2  3  1  0
  3  4  2  0
  4  5  1  0
  5  6  2  0
  6  7  1  0
  7  8  2  0
  8  9  1  0
  9 10  2  0
  9 11  1  0
  4 12  1  0
  3 13  1  0
  6  1  1  0
 11  5  1  0
  1 14  1  0
  2 15  1  0
  7 16  1  0
  8 17  1  0
 12 18  1  0
 13 19  1  0
M  END
>  <Name>  (586) 
Daphnetin

>  <PubChem ID>  (586) 
5280569

>  <CDB ID>  (586) 
CDB0586

>  <Smiles>  (586) 
C1=CC(=C(C2=C1C=CC(=O)O2)O)O

>  <Chemical class>  (586) 
7,8-Dioxygenated Coumarins

>  <Natural source>  (586) 
Euphorbia lathyris

>  <Molecular Formula>  (586) 
C9H6O4

>  <InChI-Key>  (586) 
ATEFPOUAMCWAQS-UHFFFAOYSA-N

>  <Total Molweight>  (586) 
178.143

>  <cLogP>  (586) 
0.806

>  <cLogS>  (586) 
-1.778

>  <H-Acceptors>  (586) 
4

>  <H-Donors>  (586) 
2

>  <Rotatable Bonds>  (586) 
0

>  <Polar Surface Area>  (586) 
66.76

$$$$
CDB0587
     RDKit          3D

 22 23  0  0  0  0  0  0  0  0999 V2000
   -2.4071   -1.6477   -0.3656 C   0  0  0  0  0  0  0  0  0  0  0  0
   -2.2667   -0.3002   -0.7937 O   0  0  0  0  0  0  0  0  0  0  0  0
   -1.0644    0.3287   -0.6026 C   0  0  0  0  0  0  0  0  0  0  0  0
   -1.0518    1.6525   -1.0663 C   0  0  0  0  0  0  0  0  0  0  0  0
    0.0730    2.4641   -0.9664 C   0  0  0  0  0  0  0  0  0  0  0  0
    1.2334    1.9556   -0.3877 C   0  0  0  0  0  0  0  0  0  0  0  0
    1.2579    0.6400    0.0857 C   0  0  0  0  0  0  0  0  0  0  0  0
    0.1110   -0.1628   -0.0248 C   0  0  0  0  0  0  0  0  0  0  0  0
    0.1630   -1.4882    0.4616 O   0  0  0  0  0  0  0  0  0  0  0  0
    1.2951   -2.0370    1.0447 C   0  0  0  0  0  0  0  0  0  0  0  0
    1.3251   -3.1882    1.4620 O   0  0  0  0  0  0  0  0  0  0  0  0
    2.4734   -1.1644    1.1414 C   0  0  0  0  0  0  0  0  0  0  0  0
    2.4633    0.0935    0.6933 C   0  0  0  0  0  0  0  0  0  0  0  0
   -2.1733    2.1903   -1.6420 O   0  0  0  0  0  0  0  0  0  0  0  0
   -1.7267   -2.3096   -0.9103 H   0  0  0  0  0  0  0  0  0  0  0  0
   -2.2867   -1.7337    0.7187 H   0  0  0  0  0  0  0  0  0  0  0  0
   -3.4273   -1.9643   -0.6044 H   0  0  0  0  0  0  0  0  0  0  0  0
    0.0412    3.4845   -1.3380 H   0  0  0  0  0  0  0  0  0  0  0  0
    2.1100    2.5945   -0.3122 H   0  0  0  0  0  0  0  0  0  0  0  0
    3.3519   -1.6030    1.5985 H   0  0  0  0  0  0  0  0  0  0  0  0
    3.3447    0.7208    0.7747 H   0  0  0  0  0  0  0  0  0  0  0  0
   -2.8389    1.4747   -1.6178 H   0  0  0  0  0  0  0  0  0  0  0  0
  1  2  1  0
  2  3  1  0
  3  4  2  0
  4  5  1  0
  5  6  2  0
  6  7  1  0
  7  8  2  0
  8  9  1  0
  9 10  1  0
 10 11  2  0
 10 12  1  0
 12 13  2  0
  4 14  1  0
  8  3  1  0
 13  7  1  0
  1 15  1  0
  1 16  1  0
  1 17  1  0
  5 18  1  0
  6 19  1  0
 12 20  1  0
 13 21  1  0
 14 22  1  0
M  END
>  <Name>  (587) 
Hydrangetin

>  <PubChem ID>  (587) 
5316302

>  <CDB ID>  (587) 
CDB0587

>  <Smiles>  (587) 
COC1=C(C=CC2=C1OC(=O)C=C2)O

>  <Chemical class>  (587) 
7,8-Dioxygenated Coumarins

>  <Natural source>  (587) 
Hydrangea macrophylla

>  <Molecular Formula>  (587) 
C10H8O4

>  <InChI-Key>  (587) 
HAQWEMHXSIRYBE-UHFFFAOYSA-N

>  <Total Molweight>  (587) 
192.17

>  <cLogP>  (587) 
1.0817

>  <cLogS>  (587) 
-2.092

>  <H-Acceptors>  (587) 
4

>  <H-Donors>  (587) 
1

>  <Rotatable Bonds>  (587) 
1

>  <Polar Surface Area>  (587) 
55.76

$$$$
CDB0588
     RDKit          3D

 47 48  0  0  0  0  0  0  0  0999 V2000
   -5.2269   -2.1545    0.8401 C   0  0  0  0  0  0  0  0  0  0  0  0
   -5.3285   -0.8520    0.0458 C   0  0  0  0  0  0  0  0  0  0  0  0
   -6.7975   -0.5452   -0.2592 C   0  0  0  0  0  0  0  0  0  0  0  0
   -4.6923    0.3399    0.7857 C   0  0  0  0  0  0  0  0  0  0  0  0
   -3.2082    0.1898    1.1431 C   0  0  0  0  0  0  0  0  0  0  0  0
   -2.3061   -0.0127   -0.0786 C   0  0  0  0  0  0  0  0  0  0  0  0
   -0.8326   -0.0007    0.2853 C   0  0  0  0  0  0  0  0  0  0  0  0
   -0.0423    1.0175   -0.1123 C   0  0  0  0  0  0  0  0  0  0  0  0
    1.4188    1.2192    0.1668 C   0  0  0  0  0  0  0  0  0  0  0  0
    2.1075    0.9902   -1.0655 O   0  0  0  0  0  0  0  0  0  0  0  0
    3.3659    0.4714   -0.9130 C   0  0  0  0  0  0  0  0  0  0  0  0
    3.6697   -0.6314   -1.7137 C   0  0  0  0  0  0  0  0  0  0  0  0
    4.9206   -1.2365   -1.6689 C   0  0  0  0  0  0  0  0  0  0  0  0
    5.9029   -0.7243   -0.8185 C   0  0  0  0  0  0  0  0  0  0  0  0
    5.6294    0.3953   -0.0250 C   0  0  0  0  0  0  0  0  0  0  0  0
    4.3630    0.9872   -0.0832 C   0  0  0  0  0  0  0  0  0  0  0  0
    4.0891    2.1383    0.6849 O   0  0  0  0  0  0  0  0  0  0  0  0
    5.0336    2.7002    1.5310 C   0  0  0  0  0  0  0  0  0  0  0  0
    4.7955    3.6881    2.2152 O   0  0  0  0  0  0  0  0  0  0  0  0
    6.3515    2.0473    1.5806 C   0  0  0  0  0  0  0  0  0  0  0  0
    6.6400    0.9642    0.8536 C   0  0  0  0  0  0  0  0  0  0  0  0
    2.7275   -1.1518   -2.5576 O   0  0  0  0  0  0  0  0  0  0  0  0
   -0.3502   -1.2015    1.0553 C   0  0  0  0  0  0  0  0  0  0  0  0
   -5.7483   -2.9668    0.3221 H   0  0  0  0  0  0  0  0  0  0  0  0
   -5.6720   -2.0483    1.8352 H   0  0  0  0  0  0  0  0  0  0  0  0
   -4.1852   -2.4660    0.9630 H   0  0  0  0  0  0  0  0  0  0  0  0
   -4.8190   -0.9935   -0.9146 H   0  0  0  0  0  0  0  0  0  0  0  0
   -6.8881    0.3657   -0.8603 H   0  0  0  0  0  0  0  0  0  0  0  0
   -7.2568   -1.3635   -0.8240 H   0  0  0  0  0  0  0  0  0  0  0  0
   -7.3742   -0.4037    0.6613 H   0  0  0  0  0  0  0  0  0  0  0  0
   -4.8116    1.2432    0.1732 H   0  0  0  0  0  0  0  0  0  0  0  0
   -5.2474    0.5258    1.7146 H   0  0  0  0  0  0  0  0  0  0  0  0
   -3.0809   -0.6352    1.8531 H   0  0  0  0  0  0  0  0  0  0  0  0
   -2.8964    1.0986    1.6745 H   0  0  0  0  0  0  0  0  0  0  0  0
   -2.5232    0.7703   -0.8164 H   0  0  0  0  0  0  0  0  0  0  0  0
   -2.5342   -0.9650   -0.5715 H   0  0  0  0  0  0  0  0  0  0  0  0
   -0.4854    1.8244   -0.6950 H   0  0  0  0  0  0  0  0  0  0  0  0
    1.7734    0.5676    0.9726 H   0  0  0  0  0  0  0  0  0  0  0  0
    1.5683    2.2601    0.4749 H   0  0  0  0  0  0  0  0  0  0  0  0
    5.1285   -2.0993   -2.2958 H   0  0  0  0  0  0  0  0  0  0  0  0
    6.8797   -1.2018   -0.7926 H   0  0  0  0  0  0  0  0  0  0  0  0
    7.0775    2.5003    2.2446 H   0  0  0  0  0  0  0  0  0  0  0  0
    7.6192    0.5004    0.9046 H   0  0  0  0  0  0  0  0  0  0  0  0
    1.9406   -0.5802   -2.4535 H   0  0  0  0  0  0  0  0  0  0  0  0
   -0.7406   -2.1212    0.6062 H   0  0  0  0  0  0  0  0  0  0  0  0
   -0.6923   -1.1519    2.0935 H   0  0  0  0  0  0  0  0  0  0  0  0
    0.7383   -1.2978    1.0608 H   0  0  0  0  0  0  0  0  0  0  0  0
  1  2  1  0
  2  3  1  0
  2  4  1  0
  4  5  1  0
  5  6  1  0
  6  7  1  0
  7  8  2  3
  8  9  1  0
  9 10  1  0
 10 11  1  0
 11 12  2  0
 12 13  1  0
 13 14  2  0
 14 15  1  0
 15 16  2  0
 16 17  1  0
 17 18  1  0
 18 19  2  0
 18 20  1  0
 20 21  2  0
 12 22  1  0
  7 23  1  0
 16 11  1  0
 21 15  1  0
  1 24  1  0
  1 25  1  0
  1 26  1  0
  2 27  1  0
  3 28  1  0
  3 29  1  0
  3 30  1  0
  4 31  1  0
  4 32  1  0
  5 33  1  0
  5 34  1  0
  6 35  1  0
  6 36  1  0
  8 37  1  0
  9 38  1  0
  9 39  1  0
 13 40  1  0
 14 41  1  0
 20 42  1  0
 21 43  1  0
 22 44  1  0
 23 45  1  0
 23 46  1  0
 23 47  1  0
M  END
>  <Name>  (588) 
Ferujol

>  <PubChem ID>  (588) 
6435569

>  <CDB ID>  (588) 
CDB0588

>  <Smiles>  (588) 
CC(C)CCCC(=CCOC1=C(C=CC2=C1OC(=O)C=C2)O)C

>  <Chemical class>  (588) 
7,8-Dioxygenated Coumarins

>  <Natural source>  (588) 
Ferula jaeschkeana

>  <Molecular Formula>  (588) 
C19H24O4

>  <InChI-Key>  (588) 
ATKUFZHTQAERBN-UHFFFAOYSA-N

>  <Total Molweight>  (588) 
316.396

>  <cLogP>  (588) 
4.7869

>  <cLogS>  (588) 
-4.068

>  <H-Acceptors>  (588) 
4

>  <H-Donors>  (588) 
1

>  <Rotatable Bonds>  (588) 
7

>  <Polar Surface Area>  (588) 
55.76

$$$$
CDB0589
     RDKit          3D

 50 52  0  0  0  0  0  0  0  0999 V2000
   -4.3497   -0.2884    0.6253 C   0  0  0  0  0  0  0  0  0  0  0  0
   -3.1585    0.3062   -0.1741 C   0  0  0  0  0  0  0  0  0  0  0  0
   -2.9355    1.7425    0.3680 C   0  0  0  0  0  0  0  0  0  0  0  0
   -1.6174    2.3870   -0.0496 C   0  0  0  0  0  0  0  0  0  0  0  0
   -0.4037    1.5001    0.2464 C   0  0  0  0  0  0  0  0  0  0  0  0
   -0.4980    0.0878   -0.3926 C   0  0  0  0  0  0  0  0  0  0  0  0
   -1.8661   -0.5367    0.0958 C   0  0  0  0  0  0  0  0  0  0  0  0
   -1.9439   -2.0295   -0.2775 C   0  0  0  0  0  0  0  0  0  0  0  0
   -0.8386   -2.8448    0.4177 C   0  0  0  0  0  0  0  0  0  0  0  0
    0.2725   -1.9772    0.9749 C   0  0  0  0  0  0  0  0  0  0  0  0
    0.7609   -2.1952    2.2086 C   0  0  0  0  0  0  0  0  0  0  0  0
    0.7095   -0.8804    0.0108 C   0  0  0  0  0  0  0  0  0  0  0  0
    1.9809   -0.1637    0.4266 C   0  0  0  0  0  0  0  0  0  0  0  0
    3.1386   -0.2216   -0.2519 C   0  0  0  0  0  0  0  0  0  0  0  0
    4.3682    0.4369    0.1051 C   0  0  0  0  0  0  0  0  0  0  0  0
    5.5113    0.3728   -0.5781 C   0  0  0  0  0  0  0  0  0  0  0  0
    6.5700    1.1637    0.0683 C   0  0  0  0  0  0  0  0  0  0  0  0
    5.9454    1.7169    1.2201 O   0  0  0  0  0  0  0  0  0  0  0  0
    4.6441    1.3067    1.2728 C   0  0  0  0  0  0  0  0  0  0  0  0
    3.8632    1.6238    2.1521 O   0  0  0  0  0  0  0  0  0  0  0  0
   -0.3789    0.2465   -1.9324 C   0  0  0  0  0  0  0  0  0  0  0  0
   -3.6062    0.3415   -1.6453 C   0  0  0  0  0  0  0  0  0  0  0  0
   -4.6835   -1.2454    0.2116 H   0  0  0  0  0  0  0  0  0  0  0  0
   -4.0872   -0.4471    1.6772 H   0  0  0  0  0  0  0  0  0  0  0  0
   -5.2136    0.3869    0.6028 H   0  0  0  0  0  0  0  0  0  0  0  0
   -3.7652    2.3947    0.0665 H   0  0  0  0  0  0  0  0  0  0  0  0
   -2.9556    1.7182    1.4666 H   0  0  0  0  0  0  0  0  0  0  0  0
   -1.6520    2.6559   -1.1099 H   0  0  0  0  0  0  0  0  0  0  0  0
   -1.5006    3.3340    0.4917 H   0  0  0  0  0  0  0  0  0  0  0  0
    0.4923    2.0252   -0.1068 H   0  0  0  0  0  0  0  0  0  0  0  0
   -0.3063    1.4036    1.3358 H   0  0  0  0  0  0  0  0  0  0  0  0
   -1.8030   -0.5281    1.1980 H   0  0  0  0  0  0  0  0  0  0  0  0
   -2.9063   -2.4670    0.0051 H   0  0  0  0  0  0  0  0  0  0  0  0
   -1.8663   -2.1609   -1.3622 H   0  0  0  0  0  0  0  0  0  0  0  0
   -0.4169   -3.5622   -0.2970 H   0  0  0  0  0  0  0  0  0  0  0  0
   -1.2945   -3.4396    1.2195 H   0  0  0  0  0  0  0  0  0  0  0  0
    0.3827   -2.9996    2.8326 H   0  0  0  0  0  0  0  0  0  0  0  0
    1.5478   -1.5854    2.6411 H   0  0  0  0  0  0  0  0  0  0  0  0
    0.9753   -1.4507   -0.8947 H   0  0  0  0  0  0  0  0  0  0  0  0
    1.9142    0.4219    1.3416 H   0  0  0  0  0  0  0  0  0  0  0  0
    3.1757   -0.8197   -1.1610 H   0  0  0  0  0  0  0  0  0  0  0  0
    5.6629   -0.1836   -1.4915 H   0  0  0  0  0  0  0  0  0  0  0  0
    7.4145    0.5412    0.3773 H   0  0  0  0  0  0  0  0  0  0  0  0
    6.9262    1.9732   -0.5751 H   0  0  0  0  0  0  0  0  0  0  0  0
   -0.6186   -0.6826   -2.4581 H   0  0  0  0  0  0  0  0  0  0  0  0
   -1.0057    1.0332   -2.3464 H   0  0  0  0  0  0  0  0  0  0  0  0
    0.6463    0.5204   -2.2117 H   0  0  0  0  0  0  0  0  0  0  0  0
   -2.9991    1.0002   -2.2646 H   0  0  0  0  0  0  0  0  0  0  0  0
   -3.6007   -0.6568   -2.0937 H   0  0  0  0  0  0  0  0  0  0  0  0
   -4.6308    0.7252   -1.7292 H   0  0  0  0  0  0  0  0  0  0  0  0
  1  2  1  0
  2  3  1  0
  3  4  1  0
  4  5  1  0
  5  6  1  0
  6  7  1  0
  7  8  1  0
  8  9  1  0
  9 10  1  0
 10 11  2  0
 10 12  1  0
 12 13  1  0
 13 14  2  3
 14 15  1  0
 15 16  2  0
 16 17  1  0
 17 18  1  0
 18 19  1  0
 19 20  2  0
  6 21  1  0
  2 22  1  0
  7  2  1  0
 12  6  1  0
 19 15  1  0
  1 23  1  0
  1 24  1  0
  1 25  1  0
  3 26  1  0
  3 27  1  0
  4 28  1  0
  4 29  1  0
  5 30  1  0
  5 31  1  0
  7 32  1  0
  8 33  1  0
  8 34  1  0
  9 35  1  0
  9 36  1  0
 11 37  1  0
 11 38  1  0
 12 39  1  0
 13 40  1  0
 14 41  1  0
 16 42  1  0
 17 43  1  0
 17 44  1  0
 21 45  1  0
 21 46  1  0
 21 47  1  0
 22 48  1  0
 22 49  1  0
 22 50  1  0
M  END
>  <Name>  (589) 
Villosin

>  <PubChem ID>  (589) 
16733738

>  <CDB ID>  (589) 
CDB0589

>  <Smiles>  (589) 
CC1(CCCC2(C1CCC(=C)C2C=CC3=CCOC3=O)C)C

>  <Chemical class>  (589) 
7,8-Dioxygenated Coumarins

>  <Natural source>  (589) 
Haplophyllum villosum

>  <Molecular Formula>  (589) 
C20H28O2

>  <InChI-Key>  (589) 
HVTQZHAAIRBKHO-UHFFFAOYSA-N

>  <Total Molweight>  (589) 
300.44

>  <cLogP>  (589) 
4.2501

>  <cLogS>  (589) 
-4.03

>  <H-Acceptors>  (589) 
2

>  <H-Donors>  (589) 
0

>  <Rotatable Bonds>  (589) 
2

>  <Polar Surface Area>  (589) 
26.3

$$$$
CDB0590
     RDKit          3D

 35 36  0  0  0  0  0  0  0  0999 V2000
    4.9726   -0.6145    0.4944 C   0  0  0  0  0  0  0  0  0  0  0  0
    4.0783    0.3625   -0.2177 C   0  0  0  0  0  0  0  0  0  0  0  0
    2.7307    0.3377   -0.1874 C   0  0  0  0  0  0  0  0  0  0  0  0
    1.8518   -0.6673    0.5027 C   0  0  0  0  0  0  0  0  0  0  0  0
    0.6775   -0.9015   -0.2779 O   0  0  0  0  0  0  0  0  0  0  0  0
   -0.4657   -0.2058    0.0137 C   0  0  0  0  0  0  0  0  0  0  0  0
   -1.6546   -0.7070   -0.5381 C   0  0  0  0  0  0  0  0  0  0  0  0
   -2.8630   -0.0357   -0.3281 C   0  0  0  0  0  0  0  0  0  0  0  0
   -2.9189    1.1238    0.4407 C   0  0  0  0  0  0  0  0  0  0  0  0
   -1.7395    1.6230    0.9950 C   0  0  0  0  0  0  0  0  0  0  0  0
   -0.5198    0.9655    0.7778 C   0  0  0  0  0  0  0  0  0  0  0  0
   -4.1984    1.7860    0.6344 C   0  0  0  0  0  0  0  0  0  0  0  0
   -5.2971    1.2701    0.0756 C   0  0  0  0  0  0  0  0  0  0  0  0
   -5.2688    0.0414   -0.7369 C   0  0  0  0  0  0  0  0  0  0  0  0
   -6.3007   -0.4090   -1.2211 O   0  0  0  0  0  0  0  0  0  0  0  0
   -4.0350   -0.5656   -0.9106 O   0  0  0  0  0  0  0  0  0  0  0  0
   -1.6346   -1.8174   -1.3460 O   0  0  0  0  0  0  0  0  0  0  0  0
   -1.7661   -2.9996   -0.5585 C   0  0  0  0  0  0  0  0  0  0  0  0
    4.8110    1.4225   -0.9979 C   0  0  0  0  0  0  0  0  0  0  0  0
    4.4280   -1.2974    1.1510 H   0  0  0  0  0  0  0  0  0  0  0  0
    5.6930   -0.0775    1.1207 H   0  0  0  0  0  0  0  0  0  0  0  0
    5.5283   -1.2157   -0.2325 H   0  0  0  0  0  0  0  0  0  0  0  0
    2.1896    1.1075   -0.7359 H   0  0  0  0  0  0  0  0  0  0  0  0
    1.6175   -0.3657    1.5293 H   0  0  0  0  0  0  0  0  0  0  0  0
    2.3555   -1.6366    0.5687 H   0  0  0  0  0  0  0  0  0  0  0  0
   -1.7486    2.5338    1.5900 H   0  0  0  0  0  0  0  0  0  0  0  0
    0.3747    1.4111    1.2021 H   0  0  0  0  0  0  0  0  0  0  0  0
   -4.2439    2.6922    1.2282 H   0  0  0  0  0  0  0  0  0  0  0  0
   -6.2696    1.7322    0.1938 H   0  0  0  0  0  0  0  0  0  0  0  0
   -0.9215   -3.1187    0.1286 H   0  0  0  0  0  0  0  0  0  0  0  0
   -2.7103   -3.0043   -0.0026 H   0  0  0  0  0  0  0  0  0  0  0  0
   -1.7708   -3.8563   -1.2390 H   0  0  0  0  0  0  0  0  0  0  0  0
    5.4427    2.0170   -0.3297 H   0  0  0  0  0  0  0  0  0  0  0  0
    5.4476    0.9597   -1.7592 H   0  0  0  0  0  0  0  0  0  0  0  0
    4.1284    2.1097   -1.5087 H   0  0  0  0  0  0  0  0  0  0  0  0
  1  2  1  0
  2  3  2  3
  3  4  1  0
  4  5  1  0
  5  6  1  0
  6  7  2  0
  7  8  1  0
  8  9  2  0
  9 10  1  0
 10 11  2  0
  9 12  1  0
 12 13  2  0
 13 14  1  0
 14 15  2  0
 14 16  1  0
  7 17  1  0
 17 18  1  0
  2 19  1  0
 11  6  1  0
 16  8  1  0
  1 20  1  0
  1 21  1  0
  1 22  1  0
  3 23  1  0
  4 24  1  0
  4 25  1  0
 10 26  1  0
 11 27  1  0
 12 28  1  0
 13 29  1  0
 18 30  1  0
 18 31  1  0
 18 32  1  0
 19 33  1  0
 19 34  1  0
 19 35  1  0
M  END
>  <Name>  (590) 
Lacinartin

>  <PubChem ID>  (590) 
5324625

>  <CDB ID>  (590) 
CDB0590

>  <Smiles>  (590) 
CC(=CCOC1=C(C2=C(C=C1)C=CC(=O)O2)OC)C

>  <Chemical class>  (590) 
7,8-Dioxygenated Coumarins

>  <Natural source>  (590) 
Artemisia apiacea

>  <Molecular Formula>  (590) 
C15H16O4

>  <InChI-Key>  (590) 
KBHJUIRMCYXTBK-UHFFFAOYSA-N

>  <Total Molweight>  (590) 
260.288

>  <cLogP>  (590) 
3.0267

>  <cLogS>  (590) 
-3.142

>  <H-Acceptors>  (590) 
4

>  <H-Donors>  (590) 
0

>  <Rotatable Bonds>  (590) 
4

>  <Polar Surface Area>  (590) 
44.76

$$$$
CDB0591
     RDKit          3D

 35 36  0  0  0  0  0  0  0  0999 V2000
   -5.0343   -0.4270    0.9480 C   0  0  0  0  0  0  0  0  0  0  0  0
   -3.8279    0.3780    0.4527 C   0  0  2  0  0  0  0  0  0  0  0  0
   -4.0696    0.8974   -0.9705 C   0  0  0  0  0  0  0  0  0  0  0  0
   -3.9928   -0.1462   -1.9290 O   0  0  0  0  0  0  0  0  0  0  0  0
   -2.5560   -0.4795    0.5866 C   0  0  0  0  0  0  0  0  0  0  0  0
   -1.2850    0.2158    0.1000 C   0  0  0  0  0  0  0  0  0  0  0  0
   -0.1752   -0.6146    0.4532 O   0  0  0  0  0  0  0  0  0  0  0  0
    1.0739   -0.1595    0.1167 C   0  0  0  0  0  0  0  0  0  0  0  0
    2.1309   -0.9800    0.5290 C   0  0  0  0  0  0  0  0  0  0  0  0
    1.8619   -2.1365    1.2126 O   0  0  0  0  0  0  0  0  0  0  0  0
    3.4494   -0.6290    0.2501 C   0  0  0  0  0  0  0  0  0  0  0  0
    3.7415    0.5416   -0.4455 C   0  0  0  0  0  0  0  0  0  0  0  0
    5.1301    0.8736   -0.7195 C   0  0  0  0  0  0  0  0  0  0  0  0
    6.0965    0.0522   -0.2988 C   0  0  0  0  0  0  0  0  0  0  0  0
    5.8136   -1.1912    0.4404 C   0  0  0  0  0  0  0  0  0  0  0  0
    6.7315   -1.9151    0.8097 O   0  0  0  0  0  0  0  0  0  0  0  0
    4.4820   -1.4841    0.6867 O   0  0  0  0  0  0  0  0  0  0  0  0
    2.6906    1.3637   -0.8622 C   0  0  0  0  0  0  0  0  0  0  0  0
    1.3610    1.0149   -0.5824 C   0  0  0  0  0  0  0  0  0  0  0  0
   -4.8985   -0.7220    1.9941 H   0  0  0  0  0  0  0  0  0  0  0  0
   -5.1823   -1.3383    0.3594 H   0  0  0  0  0  0  0  0  0  0  0  0
   -5.9510    0.1692    0.8882 H   0  0  0  0  0  0  0  0  0  0  0  0
   -3.7281    1.2519    1.1097 H   0  0  0  0  0  0  0  0  0  0  0  0
   -3.3155    1.6453   -1.2356 H   0  0  0  0  0  0  0  0  0  0  0  0
   -5.0472    1.3841   -1.0576 H   0  0  0  0  0  0  0  0  0  0  0  0
   -4.7598   -0.7296   -1.7970 H   0  0  0  0  0  0  0  0  0  0  0  0
   -2.4221   -0.7639    1.6390 H   0  0  0  0  0  0  0  0  0  0  0  0
   -2.6701   -1.4284    0.0460 H   0  0  0  0  0  0  0  0  0  0  0  0
   -1.1904    1.1916    0.5909 H   0  0  0  0  0  0  0  0  0  0  0  0
   -1.3206    0.3394   -0.9879 H   0  0  0  0  0  0  0  0  0  0  0  0
    0.8884   -2.1800    1.2736 H   0  0  0  0  0  0  0  0  0  0  0  0
    5.3631    1.7829   -1.2620 H   0  0  0  0  0  0  0  0  0  0  0  0
    7.1436    0.2606   -0.4814 H   0  0  0  0  0  0  0  0  0  0  0  0
    2.8910    2.2822   -1.4096 H   0  0  0  0  0  0  0  0  0  0  0  0
    0.5772    1.6808   -0.9289 H   0  0  0  0  0  0  0  0  0  0  0  0
  1  2  1  0
  2  3  1  0
  3  4  1  0
  2  5  1  0
  5  6  1  0
  6  7  1  0
  7  8  1  0
  8  9  2  0
  9 10  1  0
  9 11  1  0
 11 12  2  0
 12 13  1  0
 13 14  2  0
 14 15  1  0
 15 16  2  0
 15 17  1  0
 12 18  1  0
 18 19  2  0
 19  8  1  0
 17 11  1  0
  1 20  1  0
  1 21  1  0
  1 22  1  0
  2 23  1  1
  3 24  1  0
  3 25  1  0
  4 26  1  0
  5 27  1  0
  5 28  1  0
  6 29  1  0
  6 30  1  0
 10 31  1  0
 13 32  1  0
 14 33  1  0
 18 34  1  0
 19 35  1  0
M  END
>  <Name>  (591) 
Armin

>  <PubChem ID>  (591) 
123461933

>  <CDB ID>  (591) 
CDB0591

>  <Smiles>  (591) 
C[C@H](CO)CCOC1=C(O)C2=C(C=CC(=O)O2)C=C1

>  <Chemical class>  (591) 
7,8-Dioxygenated Coumarins

>  <Natural source>  (591) 
Artemisia armeniaca

>  <Molecular Formula>  (591) 
C14H16O5

>  <InChI-Key>  (591) 
DTFGMAKGRFQUFL-VIFPVBQESA-N

>  <Total Molweight>  (591) 
264.276

>  <cLogP>  (591) 
1.6884

>  <cLogS>  (591) 
-2.585

>  <H-Acceptors>  (591) 
5

>  <H-Donors>  (591) 
2

>  <Rotatable Bonds>  (591) 
5

>  <Polar Surface Area>  (591) 
75.99

$$$$
CDB0592
     RDKit          3D

 48 49  0  0  0  0  0  0  0  0999 V2000
    6.6101   -1.1227   -0.5240 C   0  0  0  0  0  0  0  0  0  0  0  0
    6.1872   -0.5081    0.7817 C   0  0  0  0  0  0  0  0  0  0  0  0
    4.9176   -0.2147    1.1243 C   0  0  0  0  0  0  0  0  0  0  0  0
    3.6672   -0.4696    0.3254 C   0  0  0  0  0  0  0  0  0  0  0  0
    3.1512    0.8161   -0.3310 C   0  0  0  0  0  0  0  0  0  0  0  0
    1.8524    0.6045   -1.0904 C   0  0  0  0  0  0  0  0  0  0  0  0
    0.6996    1.1211   -0.6172 C   0  0  0  0  0  0  0  0  0  0  0  0
   -0.6808    1.0093   -1.1962 C   0  0  0  0  0  0  0  0  0  0  0  0
   -1.5502    0.6194   -0.1339 O   0  0  0  0  0  0  0  0  0  0  0  0
   -2.8919    0.5477   -0.3995 C   0  0  0  0  0  0  0  0  0  0  0  0
   -3.7261    0.2779    0.6962 C   0  0  0  0  0  0  0  0  0  0  0  0
   -5.1116    0.2114    0.5224 C   0  0  0  0  0  0  0  0  0  0  0  0
   -5.6891    0.3804   -0.7332 C   0  0  0  0  0  0  0  0  0  0  0  0
   -4.8610    0.6289   -1.8289 C   0  0  0  0  0  0  0  0  0  0  0  0
   -3.4707    0.7130   -1.6630 C   0  0  0  0  0  0  0  0  0  0  0  0
   -7.1343    0.2978   -0.8665 C   0  0  0  0  0  0  0  0  0  0  0  0
   -7.8819    0.0592    0.2151 C   0  0  0  0  0  0  0  0  0  0  0  0
   -7.2977   -0.1294    1.5545 C   0  0  0  0  0  0  0  0  0  0  0  0
   -8.0163   -0.3590    2.5204 O   0  0  0  0  0  0  0  0  0  0  0  0
   -5.9182   -0.0409    1.6535 O   0  0  0  0  0  0  0  0  0  0  0  0
   -3.2033    0.1559    1.9603 O   0  0  0  0  0  0  0  0  0  0  0  0
   -2.7909   -1.1903    2.1925 C   0  0  0  0  0  0  0  0  0  0  0  0
    1.9800   -0.1703   -2.3745 C   0  0  0  0  0  0  0  0  0  0  0  0
    7.3243   -0.2138    1.7253 C   0  0  0  0  0  0  0  0  0  0  0  0
    7.0144   -2.1258   -0.3543 H   0  0  0  0  0  0  0  0  0  0  0  0
    5.7965   -1.2048   -1.2483 H   0  0  0  0  0  0  0  0  0  0  0  0
    7.3897   -0.5117   -0.9918 H   0  0  0  0  0  0  0  0  0  0  0  0
    4.7350    0.2474    2.0948 H   0  0  0  0  0  0  0  0  0  0  0  0
    2.9058   -0.8690    1.0079 H   0  0  0  0  0  0  0  0  0  0  0  0
    3.8282   -1.2501   -0.4246 H   0  0  0  0  0  0  0  0  0  0  0  0
    3.0179    1.5866    0.4404 H   0  0  0  0  0  0  0  0  0  0  0  0
    3.9054    1.2162   -1.0214 H   0  0  0  0  0  0  0  0  0  0  0  0
    0.7291    1.6860    0.3148 H   0  0  0  0  0  0  0  0  0  0  0  0
   -0.7268    0.2622   -1.9930 H   0  0  0  0  0  0  0  0  0  0  0  0
   -0.9739    1.9930   -1.5813 H   0  0  0  0  0  0  0  0  0  0  0  0
   -5.2829    0.7652   -2.8224 H   0  0  0  0  0  0  0  0  0  0  0  0
   -2.8699    0.9118   -2.5449 H   0  0  0  0  0  0  0  0  0  0  0  0
   -7.5872    0.4334   -1.8424 H   0  0  0  0  0  0  0  0  0  0  0  0
   -8.9615   -0.0091    0.1602 H   0  0  0  0  0  0  0  0  0  0  0  0
   -3.6307   -1.8866    2.0901 H   0  0  0  0  0  0  0  0  0  0  0  0
   -2.4229   -1.2545    3.2209 H   0  0  0  0  0  0  0  0  0  0  0  0
   -1.9741   -1.4808    1.5233 H   0  0  0  0  0  0  0  0  0  0  0  0
    2.1463   -1.2314   -2.1657 H   0  0  0  0  0  0  0  0  0  0  0  0
    2.8271    0.2036   -2.9597 H   0  0  0  0  0  0  0  0  0  0  0  0
    1.0993   -0.0863   -3.0155 H   0  0  0  0  0  0  0  0  0  0  0  0
    7.8638   -1.1355    1.9666 H   0  0  0  0  0  0  0  0  0  0  0  0
    8.0257    0.4907    1.2664 H   0  0  0  0  0  0  0  0  0  0  0  0
    6.9802    0.2259    2.6674 H   0  0  0  0  0  0  0  0  0  0  0  0
  1  2  1  0
  2  3  2  3
  3  4  1  0
  4  5  1  0
  5  6  1  0
  6  7  2  3
  7  8  1  0
  8  9  1  0
  9 10  1  0
 10 11  2  0
 11 12  1  0
 12 13  2  0
 13 14  1  0
 14 15  2  0
 13 16  1  0
 16 17  2  0
 17 18  1  0
 18 19  2  0
 18 20  1  0
 11 21  1  0
 21 22  1  0
  6 23  1  0
  2 24  1  0
 15 10  1  0
 20 12  1  0
  1 25  1  0
  1 26  1  0
  1 27  1  0
  3 28  1  0
  4 29  1  0
  4 30  1  0
  5 31  1  0
  5 32  1  0
  7 33  1  0
  8 34  1  0
  8 35  1  0
 14 36  1  0
 15 37  1  0
 16 38  1  0
 17 39  1  0
 22 40  1  0
 22 41  1  0
 22 42  1  0
 23 43  1  0
 23 44  1  0
 23 45  1  0
 24 46  1  0
 24 47  1  0
 24 48  1  0
M  END
>  <Name>  (592) 
Collinin

>  <PubChem ID>  (592) 
5316012

>  <CDB ID>  (592) 
CDB0592

>  <Smiles>  (592) 
CC(=CCCC(=CCOC1=C(C2=C(C=C1)C=CC(=O)O2)OC)C)C

>  <Chemical class>  (592) 
7,8-Dioxygenated Coumarins

>  <Natural source>  (592) 
Flindersia collina, Zanthoxylum schinifolium

>  <Molecular Formula>  (592) 
C20H24O4

>  <InChI-Key>  (592) 
MJWGWXGEAHRWOV-UHFFFAOYSA-N

>  <Total Molweight>  (592) 
328.407

>  <cLogP>  (592) 
5.1985

>  <cLogS>  (592) 
-4.118

>  <H-Acceptors>  (592) 
4

>  <H-Donors>  (592) 
0

>  <Rotatable Bonds>  (592) 
7

>  <Polar Surface Area>  (592) 
44.76

$$$$
CDB0593
     RDKit          3D

 49 50  0  0  0  0  0  0  0  0999 V2000
    6.1462   -1.2240    1.2303 C   0  0  0  0  0  0  0  0  0  0  0  0
    5.3771   -0.1202    1.2178 C   0  0  0  0  0  0  0  0  0  0  0  0
    4.6207    0.2934    2.4522 C   0  0  0  0  0  0  0  0  0  0  0  0
    5.2313    0.7969    0.0160 C   0  0  1  0  0  0  0  0  0  0  0  0
    6.1496    0.4190   -1.0104 O   0  0  0  0  0  0  0  0  0  0  0  0
    3.8151    0.8470   -0.5787 C   0  0  0  0  0  0  0  0  0  0  0  0
    3.3135   -0.5124   -1.0858 C   0  0  0  0  0  0  0  0  0  0  0  0
    1.9106   -0.4207   -1.6636 C   0  0  0  0  0  0  0  0  0  0  0  0
    1.8210    0.1908   -3.0357 C   0  0  0  0  0  0  0  0  0  0  0  0
    0.8604   -0.8923   -0.9604 C   0  0  0  0  0  0  0  0  0  0  0  0
   -0.5942   -0.8794   -1.3291 C   0  0  0  0  0  0  0  0  0  0  0  0
   -1.3051   -0.3460   -0.2122 O   0  0  0  0  0  0  0  0  0  0  0  0
   -2.6612   -0.1954   -0.3325 C   0  0  0  0  0  0  0  0  0  0  0  0
   -3.3057    0.4763    0.7175 C   0  0  0  0  0  0  0  0  0  0  0  0
   -2.5823    0.9940    1.7637 O   0  0  0  0  0  0  0  0  0  0  0  0
   -2.4169    0.0068    2.7805 C   0  0  0  0  0  0  0  0  0  0  0  0
   -4.6854    0.6957    0.6667 C   0  0  0  0  0  0  0  0  0  0  0  0
   -5.4499    0.2315   -0.4005 C   0  0  0  0  0  0  0  0  0  0  0  0
   -6.8824    0.4788   -0.4077 C   0  0  0  0  0  0  0  0  0  0  0  0
   -7.4401    1.1438    0.6084 C   0  0  0  0  0  0  0  0  0  0  0  0
   -6.6568    1.6418    1.7526 C   0  0  0  0  0  0  0  0  0  0  0  0
   -7.2067    2.2374    2.6718 O   0  0  0  0  0  0  0  0  0  0  0  0
   -5.2930    1.3958    1.7316 O   0  0  0  0  0  0  0  0  0  0  0  0
   -4.8156   -0.4563   -1.4362 C   0  0  0  0  0  0  0  0  0  0  0  0
   -3.4295   -0.6680   -1.4028 C   0  0  0  0  0  0  0  0  0  0  0  0
    6.2369   -1.8506    2.1115 H   0  0  0  0  0  0  0  0  0  0  0  0
    6.7083   -1.5306    0.3526 H   0  0  0  0  0  0  0  0  0  0  0  0
    4.8503   -0.3480    3.3100 H   0  0  0  0  0  0  0  0  0  0  0  0
    4.8798    1.3199    2.7312 H   0  0  0  0  0  0  0  0  0  0  0  0
    3.5414    0.2389    2.2806 H   0  0  0  0  0  0  0  0  0  0  0  0
    5.5186    1.8081    0.3303 H   0  0  0  0  0  0  0  0  0  0  0  0
    6.1447    1.1309   -1.6711 H   0  0  0  0  0  0  0  0  0  0  0  0
    3.8239    1.5536   -1.4186 H   0  0  0  0  0  0  0  0  0  0  0  0
    3.1127    1.2489    0.1618 H   0  0  0  0  0  0  0  0  0  0  0  0
    3.9907   -0.9107   -1.8513 H   0  0  0  0  0  0  0  0  0  0  0  0
    3.3276   -1.2405   -0.2656 H   0  0  0  0  0  0  0  0  0  0  0  0
    2.5643   -0.2622   -3.7007 H   0  0  0  0  0  0  0  0  0  0  0  0
    2.0117    1.2672   -2.9876 H   0  0  0  0  0  0  0  0  0  0  0  0
    0.8484    0.0430   -3.5105 H   0  0  0  0  0  0  0  0  0  0  0  0
    1.0517   -1.3315    0.0187 H   0  0  0  0  0  0  0  0  0  0  0  0
   -0.9094   -1.9131   -1.5119 H   0  0  0  0  0  0  0  0  0  0  0  0
   -0.7870   -0.2654   -2.2129 H   0  0  0  0  0  0  0  0  0  0  0  0
   -1.8315   -0.8458    2.4199 H   0  0  0  0  0  0  0  0  0  0  0  0
   -1.8677    0.4670    3.6073 H   0  0  0  0  0  0  0  0  0  0  0  0
   -3.3846   -0.3336    3.1655 H   0  0  0  0  0  0  0  0  0  0  0  0
   -7.4798    0.1218   -1.2393 H   0  0  0  0  0  0  0  0  0  0  0  0
   -8.5029    1.3501    0.6420 H   0  0  0  0  0  0  0  0  0  0  0  0
   -5.3864   -0.8321   -2.2827 H   0  0  0  0  0  0  0  0  0  0  0  0
   -2.9825   -1.2067   -2.2326 H   0  0  0  0  0  0  0  0  0  0  0  0
  1  2  2  0
  2  3  1  0
  2  4  1  0
  4  5  1  0
  4  6  1  0
  6  7  1  0
  7  8  1  0
  8  9  1  0
  8 10  2  3
 10 11  1  0
 11 12  1  0
 12 13  1  0
 13 14  2  0
 14 15  1  0
 15 16  1  0
 14 17  1  0
 17 18  2  0
 18 19  1  0
 19 20  2  0
 20 21  1  0
 21 22  2  0
 21 23  1  0
 18 24  1  0
 24 25  2  0
 25 13  1  0
 23 17  1  0
  1 26  1  0
  1 27  1  0
  3 28  1  0
  3 29  1  0
  3 30  1  0
  4 31  1  1
  5 32  1  0
  6 33  1  0
  6 34  1  0
  7 35  1  0
  7 36  1  0
  9 37  1  0
  9 38  1  0
  9 39  1  0
 10 40  1  0
 11 41  1  0
 11 42  1  0
 16 43  1  0
 16 44  1  0
 16 45  1  0
 19 46  1  0
 20 47  1  0
 24 48  1  0
 25 49  1  0
M  END
>  <Name>  (593) 
Schininallylol

>  <PubChem ID>  (593) 
5321166

>  <CDB ID>  (593) 
CDB0593

>  <Smiles>  (593) 
C=C(C)[C@@H](O)CCC(C)=CCOC1=C(OC)C2=C(C=CC(=O)O2)C=C1

>  <Chemical class>  (593) 
7,8-Dioxygenated Coumarins

>  <Natural source>  (593) 
Zanthoxylum schinifolium

>  <Molecular Formula>  (593) 
C20H24O5

>  <InChI-Key>  (593) 
HJXUJCUQJRJQMD-INIZCTEOSA-N

>  <Total Molweight>  (593) 
344.406

>  <cLogP>  (593) 
4.2434

>  <cLogS>  (593) 
-3.886

>  <H-Acceptors>  (593) 
5

>  <H-Donors>  (593) 
1

>  <Rotatable Bonds>  (593) 
8

>  <Polar Surface Area>  (593) 
64.99

$$$$
CDB0594
     RDKit          3D

 49 50  0  0  0  0  0  0  0  0999 V2000
    1.6504   -1.7190   -0.1363 C   0  0  0  0  0  0  0  0  0  0  0  0
    1.6128   -0.5237    0.7792 C   0  0  0  0  0  0  0  0  0  0  0  0
    0.4990    0.1696    1.0971 C   0  0  0  0  0  0  0  0  0  0  0  0
   -0.9033   -0.0376    0.5998 C   0  0  0  0  0  0  0  0  0  0  0  0
   -1.3986    1.2483    0.2043 O   0  0  0  0  0  0  0  0  0  0  0  0
   -2.7536    1.4049    0.3258 C   0  0  0  0  0  0  0  0  0  0  0  0
   -3.7226    0.4766   -0.0682 C   0  0  0  0  0  0  0  0  0  0  0  0
   -5.0758    0.7724    0.1360 C   0  0  0  0  0  0  0  0  0  0  0  0
   -5.4819    1.9916    0.6784 C   0  0  0  0  0  0  0  0  0  0  0  0
   -4.5131    2.9345    1.0239 C   0  0  0  0  0  0  0  0  0  0  0  0
   -3.1572    2.6417    0.8419 C   0  0  0  0  0  0  0  0  0  0  0  0
   -6.9008    2.2490    0.8633 C   0  0  0  0  0  0  0  0  0  0  0  0
   -7.7913    1.3182    0.5081 C   0  0  0  0  0  0  0  0  0  0  0  0
   -7.3936    0.0251   -0.0743 C   0  0  0  0  0  0  0  0  0  0  0  0
   -8.2397   -0.7995   -0.3996 O   0  0  0  0  0  0  0  0  0  0  0  0
   -6.0348   -0.1969   -0.2354 O   0  0  0  0  0  0  0  0  0  0  0  0
   -3.3753   -0.7282   -0.6202 O   0  0  0  0  0  0  0  0  0  0  0  0
   -3.3295   -0.6156   -2.0441 C   0  0  0  0  0  0  0  0  0  0  0  0
    2.9549   -0.1469    1.3799 C   0  0  0  0  0  0  0  0  0  0  0  0
    3.8275    0.5651    0.3850 C   0  0  0  0  0  0  0  0  0  0  0  0
    4.9581    0.1556   -0.2188 C   0  0  0  0  0  0  0  0  0  0  0  0
    5.7204   -1.1495   -0.1548 C   0  0  0  0  0  0  0  0  0  0  0  0
    5.9570   -1.6776   -1.5734 C   0  0  0  0  0  0  0  0  0  0  0  0
    7.0533   -0.9327    0.5654 C   0  0  0  0  0  0  0  0  0  0  0  0
    4.9872   -2.1408    0.5523 O   0  0  0  0  0  0  0  0  0  0  0  0
    2.1366   -2.5625    0.3653 H   0  0  0  0  0  0  0  0  0  0  0  0
    0.6592   -2.0652   -0.4367 H   0  0  0  0  0  0  0  0  0  0  0  0
    2.2117   -1.4872   -1.0468 H   0  0  0  0  0  0  0  0  0  0  0  0
    0.5918    1.0017    1.7938 H   0  0  0  0  0  0  0  0  0  0  0  0
   -1.4980   -0.4615    1.4185 H   0  0  0  0  0  0  0  0  0  0  0  0
   -0.9278   -0.7009   -0.2664 H   0  0  0  0  0  0  0  0  0  0  0  0
   -4.7948    3.8987    1.4400 H   0  0  0  0  0  0  0  0  0  0  0  0
   -2.4052    3.3777    1.1186 H   0  0  0  0  0  0  0  0  0  0  0  0
   -7.2177    3.1945    1.2895 H   0  0  0  0  0  0  0  0  0  0  0  0
   -8.8567    1.4707    0.6301 H   0  0  0  0  0  0  0  0  0  0  0  0
   -3.0249   -1.5866   -2.4458 H   0  0  0  0  0  0  0  0  0  0  0  0
   -2.5899    0.1284   -2.3601 H   0  0  0  0  0  0  0  0  0  0  0  0
   -4.3145   -0.3721   -2.4569 H   0  0  0  0  0  0  0  0  0  0  0  0
    2.8106    0.5355    2.2286 H   0  0  0  0  0  0  0  0  0  0  0  0
    3.4256   -1.0281    1.8208 H   0  0  0  0  0  0  0  0  0  0  0  0
    3.4785    1.5696    0.1434 H   0  0  0  0  0  0  0  0  0  0  0  0
    5.4178    0.8876   -0.8856 H   0  0  0  0  0  0  0  0  0  0  0  0
    6.4939   -2.6332   -1.5506 H   0  0  0  0  0  0  0  0  0  0  0  0
    5.0050   -1.8710   -2.0823 H   0  0  0  0  0  0  0  0  0  0  0  0
    6.5367   -0.9745   -2.1817 H   0  0  0  0  0  0  0  0  0  0  0  0
    6.8901   -0.6032    1.5986 H   0  0  0  0  0  0  0  0  0  0  0  0
    7.6755   -0.1863    0.0595 H   0  0  0  0  0  0  0  0  0  0  0  0
    7.6216   -1.8681    0.6269 H   0  0  0  0  0  0  0  0  0  0  0  0
    5.5253   -2.9487    0.5773 H   0  0  0  0  0  0  0  0  0  0  0  0
  1  2  1  0
  2  3  2  3
  3  4  1  0
  4  5  1  0
  5  6  1  0
  6  7  2  0
  7  8  1  0
  8  9  2  0
  9 10  1  0
 10 11  2  0
  9 12  1  0
 12 13  2  0
 13 14  1  0
 14 15  2  0
 14 16  1  0
  7 17  1  0
 17 18  1  0
  2 19  1  0
 19 20  1  0
 20 21  2  3
 21 22  1  0
 22 23  1  0
 22 24  1  0
 22 25  1  0
 11  6  1  0
 16  8  1  0
  1 26  1  0
  1 27  1  0
  1 28  1  0
  3 29  1  0
  4 30  1  0
  4 31  1  0
 10 32  1  0
 11 33  1  0
 12 34  1  0
 13 35  1  0
 18 36  1  0
 18 37  1  0
 18 38  1  0
 19 39  1  0
 19 40  1  0
 20 41  1  0
 21 42  1  0
 23 43  1  0
 23 44  1  0
 23 45  1  0
 24 46  1  0
 24 47  1  0
 24 48  1  0
 25 49  1  0
M  END
>  <Name>  (594) 
Schinilenol

>  <PubChem ID>  (594) 
5321165

>  <CDB ID>  (594) 
CDB0594

>  <Smiles>  (594) 
CC(=CCOC1=C(C2=C(C=C1)C=CC(=O)O2)OC)CC=CC(C)(C)O

>  <Chemical class>  (594) 
7,8-Dioxygenated Coumarins

>  <Natural source>  (594) 
Zanthoxylum schinifolium

>  <Molecular Formula>  (594) 
C20H24O5

>  <InChI-Key>  (594) 
HAXANHARRBCLKV-UHFFFAOYSA-N

>  <Total Molweight>  (594) 
344.406

>  <cLogP>  (594) 
3.9509

>  <cLogS>  (594) 
-3.704

>  <H-Acceptors>  (594) 
5

>  <H-Donors>  (594) 
1

>  <Rotatable Bonds>  (594) 
7

>  <Polar Surface Area>  (594) 
64.99

$$$$
CDB0595
     RDKit          3D

 49 51  0  0  0  0  0  0  0  0999 V2000
   -4.7103    1.5721   -1.6800 C   0  0  0  0  0  0  0  0  0  0  0  0
   -3.9546    0.7695   -0.7742 O   0  0  0  0  0  0  0  0  0  0  0  0
   -3.0116    0.0450   -1.4621 C   0  0  0  0  0  0  0  0  0  0  0  0
   -1.7306    0.5749   -1.6823 C   0  0  0  0  0  0  0  0  0  0  0  0
   -1.5172    1.8433   -1.2124 O   0  0  0  0  0  0  0  0  0  0  0  0
   -0.2523    2.4730   -1.4285 C   0  0  0  0  0  0  0  0  0  0  0  0
    0.7406    2.0121   -0.3969 C   0  0  0  0  0  0  0  0  0  0  0  0
    2.0506    1.7356   -0.5660 C   0  0  0  0  0  0  0  0  0  0  0  0
    2.7782    1.9104   -1.8763 C   0  0  0  0  0  0  0  0  0  0  0  0
    2.9570    1.2206    0.5452 C   0  0  0  0  0  0  0  0  0  0  0  0
    2.3119    0.8905    1.8993 C   0  0  0  0  0  0  0  0  0  0  0  0
    3.3345    0.3904    2.8742 C   0  0  2  0  0  0  0  0  0  0  0  0
    3.5859   -1.0201    2.8107 O   0  0  0  0  0  0  0  0  0  0  0  0
    3.0075   -0.5369    4.0341 C   0  0  0  0  0  0  0  0  0  0  0  0
    1.6133   -1.0220    4.2826 C   0  0  0  0  0  0  0  0  0  0  0  0
    3.9440   -0.5781    5.2020 C   0  0  0  0  0  0  0  0  0  0  0  0
   -0.7823   -0.2146   -2.3411 C   0  0  0  0  0  0  0  0  0  0  0  0
   -1.0996   -1.5141   -2.7630 C   0  0  0  0  0  0  0  0  0  0  0  0
   -2.3694   -2.0425   -2.5279 C   0  0  0  0  0  0  0  0  0  0  0  0
   -3.3139   -1.2567   -1.8734 C   0  0  0  0  0  0  0  0  0  0  0  0
   -4.6077   -1.7591   -1.6146 O   0  0  0  0  0  0  0  0  0  0  0  0
   -4.9791   -3.0375   -2.0005 C   0  0  0  0  0  0  0  0  0  0  0  0
   -6.1005   -3.4886   -1.7983 O   0  0  0  0  0  0  0  0  0  0  0  0
   -3.9575   -3.8491   -2.6847 C   0  0  0  0  0  0  0  0  0  0  0  0
   -2.7286   -3.3899   -2.9386 C   0  0  0  0  0  0  0  0  0  0  0  0
   -4.0757    2.3046   -2.1905 H   0  0  0  0  0  0  0  0  0  0  0  0
   -5.4573    2.1202   -1.0982 H   0  0  0  0  0  0  0  0  0  0  0  0
   -5.2400    0.9536   -2.4130 H   0  0  0  0  0  0  0  0  0  0  0  0
   -0.4175    3.5456   -1.2757 H   0  0  0  0  0  0  0  0  0  0  0  0
    0.0676    2.3558   -2.4674 H   0  0  0  0  0  0  0  0  0  0  0  0
    0.2889    1.8890    0.5854 H   0  0  0  0  0  0  0  0  0  0  0  0
    3.0836    0.9352   -2.2694 H   0  0  0  0  0  0  0  0  0  0  0  0
    2.1819    2.4098   -2.6427 H   0  0  0  0  0  0  0  0  0  0  0  0
    3.6764    2.5200   -1.7293 H   0  0  0  0  0  0  0  0  0  0  0  0
    3.7490    1.9639    0.7073 H   0  0  0  0  0  0  0  0  0  0  0  0
    3.4565    0.3133    0.1790 H   0  0  0  0  0  0  0  0  0  0  0  0
    1.5174    0.1520    1.7481 H   0  0  0  0  0  0  0  0  0  0  0  0
    1.8508    1.7894    2.3247 H   0  0  0  0  0  0  0  0  0  0  0  0
    4.1805    1.0592    2.9778 H   0  0  0  0  0  0  0  0  0  0  0  0
    1.6214   -1.9019    4.9347 H   0  0  0  0  0  0  0  0  0  0  0  0
    1.0259   -0.2404    4.7745 H   0  0  0  0  0  0  0  0  0  0  0  0
    1.0979   -1.3112    3.3618 H   0  0  0  0  0  0  0  0  0  0  0  0
    4.0229   -1.5965    5.5963 H   0  0  0  0  0  0  0  0  0  0  0  0
    4.9519   -0.2462    4.9307 H   0  0  0  0  0  0  0  0  0  0  0  0
    3.5791    0.0737    6.0022 H   0  0  0  0  0  0  0  0  0  0  0  0
    0.2251    0.1411   -2.5302 H   0  0  0  0  0  0  0  0  0  0  0  0
   -0.3369   -2.1055   -3.2651 H   0  0  0  0  0  0  0  0  0  0  0  0
   -4.2655   -4.8470   -2.9720 H   0  0  0  0  0  0  0  0  0  0  0  0
   -1.9923   -4.0059   -3.4428 H   0  0  0  0  0  0  0  0  0  0  0  0
  1  2  1  0
  2  3  1  0
  3  4  2  0
  4  5  1  0
  5  6  1  0
  6  7  1  0
  7  8  2  3
  8  9  1  0
  8 10  1  0
 10 11  1  0
 11 12  1  0
 12 13  1  0
 13 14  1  0
 14 15  1  0
 14 16  1  0
  4 17  1  0
 17 18  2  0
 18 19  1  0
 19 20  2  0
 20 21  1  0
 21 22  1  0
 22 23  2  0
 22 24  1  0
 24 25  2  0
 20  3  1  0
 14 12  1  0
 25 19  1  0
  1 26  1  0
  1 27  1  0
  1 28  1  0
  6 29  1  0
  6 30  1  0
  7 31  1  0
  9 32  1  0
  9 33  1  0
  9 34  1  0
 10 35  1  0
 10 36  1  0
 11 37  1  0
 11 38  1  0
 12 39  1  1
 15 40  1  0
 15 41  1  0
 15 42  1  0
 16 43  1  0
 16 44  1  0
 16 45  1  0
 17 46  1  0
 18 47  1  0
 24 48  1  0
 25 49  1  0
M  END
>  <Name>  (595) 
Epoxycollinin

>  <PubChem ID>  (595) 
5317135

>  <CDB ID>  (595) 
CDB0595

>  <Smiles>  (595) 
COC1=C(OCC=C(C)CC[C@@H]2OC2(C)C)C=CC2=C1OC(=O)C=C2

>  <Chemical class>  (595) 
7,8-Dioxygenated Coumarins

>  <Natural source>  (595) 
Zanthoxylum schinifolium

>  <Molecular Formula>  (595) 
C20H24O5

>  <InChI-Key>  (595) 
KZSNOTJYLLULDB-INIZCTEOSA-N

>  <Total Molweight>  (595) 
344.406

>  <cLogP>  (595) 
3.7677

>  <cLogS>  (595) 
-4.014

>  <H-Acceptors>  (595) 
5

>  <H-Donors>  (595) 
0

>  <Rotatable Bonds>  (595) 
7

>  <Polar Surface Area>  (595) 
57.29

$$$$
CDB0596
     RDKit          3D

 52 53  0  0  0  0  0  0  0  0999 V2000
    4.5679   -1.9772   -1.7240 C   0  0  0  0  0  0  0  0  0  0  0  0
    4.3065   -1.7961   -0.3332 O   0  0  0  0  0  0  0  0  0  0  0  0
    4.0703   -0.4698   -0.0665 C   0  0  0  0  0  0  0  0  0  0  0  0
    2.7766    0.0625   -0.1769 C   0  0  0  0  0  0  0  0  0  0  0  0
    1.8032   -0.7967   -0.6148 O   0  0  0  0  0  0  0  0  0  0  0  0
    0.4550   -0.3306   -0.5999 C   0  0  0  0  0  0  0  0  0  0  0  0
   -0.4132   -1.4584   -1.0753 C   0  0  0  0  0  0  0  0  0  0  0  0
   -1.5068   -1.9688   -0.4730 C   0  0  0  0  0  0  0  0  0  0  0  0
   -2.2468   -3.1256   -1.0919 C   0  0  0  0  0  0  0  0  0  0  0  0
   -2.0522   -1.4831    0.8510 C   0  0  0  0  0  0  0  0  0  0  0  0
   -2.7914   -0.1321    0.8399 C   0  0  0  0  0  0  0  0  0  0  0  0
   -4.0894   -0.1257    0.0132 C   0  0  2  0  0  0  0  0  0  0  0  0
   -3.7116   -0.0751   -1.3734 O   0  0  0  0  0  0  0  0  0  0  0  0
   -5.0053    1.1060    0.2844 C   0  0  0  0  0  0  0  0  0  0  0  0
   -6.2486    1.0709   -0.6163 C   0  0  0  0  0  0  0  0  0  0  0  0
   -5.4467    1.2161    1.7446 C   0  0  0  0  0  0  0  0  0  0  0  0
   -4.2818    2.2989   -0.0487 O   0  0  0  0  0  0  0  0  0  0  0  0
    2.5715    1.4084    0.1490 C   0  0  0  0  0  0  0  0  0  0  0  0
    3.6347    2.2058    0.5973 C   0  0  0  0  0  0  0  0  0  0  0  0
    4.9156    1.6669    0.7262 C   0  0  0  0  0  0  0  0  0  0  0  0
    5.1198    0.3297    0.3959 C   0  0  0  0  0  0  0  0  0  0  0  0
    6.4023   -0.2491    0.5137 O   0  0  0  0  0  0  0  0  0  0  0  0
    7.4909    0.4856    0.9564 C   0  0  0  0  0  0  0  0  0  0  0  0
    8.6150    0.0072    1.0552 O   0  0  0  0  0  0  0  0  0  0  0  0
    7.2446    1.8959    1.3043 C   0  0  0  0  0  0  0  0  0  0  0  0
    6.0382    2.4608    1.1982 C   0  0  0  0  0  0  0  0  0  0  0  0
    5.4398   -1.3957   -2.0438 H   0  0  0  0  0  0  0  0  0  0  0  0
    3.6955   -1.7180   -2.3332 H   0  0  0  0  0  0  0  0  0  0  0  0
    4.7903   -3.0360   -1.8874 H   0  0  0  0  0  0  0  0  0  0  0  0
    0.1853   -0.0084    0.4102 H   0  0  0  0  0  0  0  0  0  0  0  0
    0.3411    0.5045   -1.3009 H   0  0  0  0  0  0  0  0  0  0  0  0
   -0.0925   -1.8853   -2.0244 H   0  0  0  0  0  0  0  0  0  0  0  0
   -1.8234   -3.4211   -2.0577 H   0  0  0  0  0  0  0  0  0  0  0  0
   -2.2051   -3.9973   -0.4306 H   0  0  0  0  0  0  0  0  0  0  0  0
   -3.2970   -2.8671   -1.2577 H   0  0  0  0  0  0  0  0  0  0  0  0
   -2.7205   -2.2457    1.2725 H   0  0  0  0  0  0  0  0  0  0  0  0
   -1.2225   -1.4179    1.5674 H   0  0  0  0  0  0  0  0  0  0  0  0
   -3.0125    0.0987    1.8866 H   0  0  0  0  0  0  0  0  0  0  0  0
   -2.1158    0.6501    0.4743 H   0  0  0  0  0  0  0  0  0  0  0  0
   -4.6479   -1.0528    0.1917 H   0  0  0  0  0  0  0  0  0  0  0  0
   -4.3573   -0.6063   -1.8713 H   0  0  0  0  0  0  0  0  0  0  0  0
   -5.9792    1.1157   -1.6772 H   0  0  0  0  0  0  0  0  0  0  0  0
   -6.8860    1.9440   -0.4335 H   0  0  0  0  0  0  0  0  0  0  0  0
   -6.8423    0.1675   -0.4435 H   0  0  0  0  0  0  0  0  0  0  0  0
   -5.9213    0.2925    2.0910 H   0  0  0  0  0  0  0  0  0  0  0  0
   -6.1617    2.0376    1.8729 H   0  0  0  0  0  0  0  0  0  0  0  0
   -4.6085    1.4558    2.4062 H   0  0  0  0  0  0  0  0  0  0  0  0
   -3.8022    2.0862   -0.8748 H   0  0  0  0  0  0  0  0  0  0  0  0
    1.5937    1.8732    0.0682 H   0  0  0  0  0  0  0  0  0  0  0  0
    3.4437    3.2473    0.8467 H   0  0  0  0  0  0  0  0  0  0  0  0
    8.1070    2.4510    1.6525 H   0  0  0  0  0  0  0  0  0  0  0  0
    5.8809    3.5012    1.4603 H   0  0  0  0  0  0  0  0  0  0  0  0
  1  2  1  0
  2  3  1  0
  3  4  2  0
  4  5  1  0
  5  6  1  0
  6  7  1  0
  7  8  2  3
  8  9  1  0
  8 10  1  0
 10 11  1  0
 11 12  1  0
 12 13  1  0
 12 14  1  0
 14 15  1  0
 14 16  1  0
 14 17  1  0
  4 18  1  0
 18 19  2  0
 19 20  1  0
 20 21  2  0
 21 22  1  0
 22 23  1  0
 23 24  2  0
 23 25  1  0
 25 26  2  0
 21  3  1  0
 26 20  1  0
  1 27  1  0
  1 28  1  0
  1 29  1  0
  6 30  1  0
  6 31  1  0
  7 32  1  0
  9 33  1  0
  9 34  1  0
  9 35  1  0
 10 36  1  0
 10 37  1  0
 11 38  1  0
 11 39  1  0
 12 40  1  6
 13 41  1  0
 15 42  1  0
 15 43  1  0
 15 44  1  0
 16 45  1  0
 16 46  1  0
 16 47  1  0
 17 48  1  0
 18 49  1  0
 19 50  1  0
 25 51  1  0
 26 52  1  0
M  END
>  <Name>  (596) 
Schinindiol

>  <PubChem ID>  (596) 
5321167

>  <CDB ID>  (596) 
CDB0596

>  <Smiles>  (596) 
COC1=C(OCC=C(C)CC[C@H](O)C(C)(C)O)C=CC2=C1OC(=O)C=C2

>  <Chemical class>  (596) 
7,8-Dioxygenated Coumarins

>  <Natural source>  (596) 
Zanthoxylum schinifolium

>  <Molecular Formula>  (596) 
C20H26O6

>  <InChI-Key>  (596) 
AGIAPQOXXWKVOJ-INIZCTEOSA-N

>  <Total Molweight>  (596) 
362.42

>  <cLogP>  (596) 
3.1813

>  <cLogS>  (596) 
-3.533

>  <H-Acceptors>  (596) 
6

>  <H-Donors>  (596) 
2

>  <Rotatable Bonds>  (596) 
8

>  <Polar Surface Area>  (596) 
85.22

$$$$
CDB0597
     RDKit          3D

 48 50  0  0  0  0  0  0  0  0999 V2000
    5.9909   -1.8332    0.8247 C   0  0  0  0  0  0  0  0  0  0  0  0
    5.7457   -0.7532   -0.2118 C   0  0  0  0  0  0  0  0  0  0  0  0
    4.7252   -1.1608   -1.2566 C   0  0  0  0  0  0  0  0  0  0  0  0
    4.2045    0.1859   -1.7127 C   0  0  0  0  0  0  0  0  0  0  0  0
    4.1940    0.9888   -0.5247 O   0  0  0  0  0  0  0  0  0  0  0  0
    5.0960    0.4784    0.3674 C   0  0  0  0  0  0  0  0  0  0  0  0
    5.3435    0.9789    1.4519 O   0  0  0  0  0  0  0  0  0  0  0  0
    2.8306    0.1901   -2.4003 C   0  0  0  0  0  0  0  0  0  0  0  0
    1.6996   -0.5040   -1.6549 C   0  0  0  0  0  0  0  0  0  0  0  0
    1.0725    0.1331   -0.6444 C   0  0  0  0  0  0  0  0  0  0  0  0
   -0.0731   -0.3313    0.2060 C   0  0  0  0  0  0  0  0  0  0  0  0
   -1.1406    0.5937    0.0147 O   0  0  0  0  0  0  0  0  0  0  0  0
   -2.2850    0.4121    0.7449 C   0  0  0  0  0  0  0  0  0  0  0  0
   -3.3016    1.3597    0.5484 C   0  0  0  0  0  0  0  0  0  0  0  0
   -4.4941    1.2687    1.2723 C   0  0  0  0  0  0  0  0  0  0  0  0
   -4.7107    0.2324    2.1766 C   0  0  0  0  0  0  0  0  0  0  0  0
   -3.7092   -0.7218    2.3618 C   0  0  0  0  0  0  0  0  0  0  0  0
   -2.5032   -0.6319    1.6512 C   0  0  0  0  0  0  0  0  0  0  0  0
   -5.9678    0.1770    2.9046 C   0  0  0  0  0  0  0  0  0  0  0  0
   -6.8937    1.1164    2.6903 C   0  0  0  0  0  0  0  0  0  0  0  0
   -6.6953    2.2187    1.7331 C   0  0  0  0  0  0  0  0  0  0  0  0
   -7.5755    3.0523    1.5525 O   0  0  0  0  0  0  0  0  0  0  0  0
   -5.4852    2.2514    1.0585 O   0  0  0  0  0  0  0  0  0  0  0  0
   -3.1114    2.4274   -0.2941 O   0  0  0  0  0  0  0  0  0  0  0  0
   -3.4466    2.0635   -1.6322 C   0  0  0  0  0  0  0  0  0  0  0  0
    1.3303   -1.8656   -2.1786 C   0  0  0  0  0  0  0  0  0  0  0  0
    6.3685   -2.7465    0.3540 H   0  0  0  0  0  0  0  0  0  0  0  0
    6.7291   -1.4995    1.5618 H   0  0  0  0  0  0  0  0  0  0  0  0
    5.0749   -2.0812    1.3724 H   0  0  0  0  0  0  0  0  0  0  0  0
    6.6862   -0.4498   -0.6861 H   0  0  0  0  0  0  0  0  0  0  0  0
    5.1570   -1.7454   -2.0743 H   0  0  0  0  0  0  0  0  0  0  0  0
    3.9393   -1.7616   -0.7864 H   0  0  0  0  0  0  0  0  0  0  0  0
    4.9234    0.6533   -2.3991 H   0  0  0  0  0  0  0  0  0  0  0  0
    2.9317   -0.2613   -3.3956 H   0  0  0  0  0  0  0  0  0  0  0  0
    2.5339    1.2335   -2.5752 H   0  0  0  0  0  0  0  0  0  0  0  0
    1.4166    1.1339   -0.3772 H   0  0  0  0  0  0  0  0  0  0  0  0
   -0.4030   -1.3383   -0.0604 H   0  0  0  0  0  0  0  0  0  0  0  0
    0.2547   -0.3198    1.2525 H   0  0  0  0  0  0  0  0  0  0  0  0
   -3.8482   -1.5415    3.0635 H   0  0  0  0  0  0  0  0  0  0  0  0
   -1.7523   -1.3932    1.8375 H   0  0  0  0  0  0  0  0  0  0  0  0
   -6.1364   -0.6248    3.6148 H   0  0  0  0  0  0  0  0  0  0  0  0
   -7.8428    1.1133    3.2123 H   0  0  0  0  0  0  0  0  0  0  0  0
   -4.4890    1.7337   -1.7053 H   0  0  0  0  0  0  0  0  0  0  0  0
   -2.7761    1.2880   -2.0172 H   0  0  0  0  0  0  0  0  0  0  0  0
   -3.3292    2.9521   -2.2597 H   0  0  0  0  0  0  0  0  0  0  0  0
    0.9404   -1.7792   -3.1983 H   0  0  0  0  0  0  0  0  0  0  0  0
    0.5732   -2.3735   -1.5784 H   0  0  0  0  0  0  0  0  0  0  0  0
    2.2080   -2.5187   -2.2046 H   0  0  0  0  0  0  0  0  0  0  0  0
  1  2  1  0
  2  3  1  0
  3  4  1  0
  4  5  1  0
  5  6  1  0
  6  7  2  0
  4  8  1  0
  8  9  1  0
  9 10  2  3
 10 11  1  0
 11 12  1  0
 12 13  1  0
 13 14  2  0
 14 15  1  0
 15 16  2  0
 16 17  1  0
 17 18  2  0
 16 19  1  0
 19 20  2  0
 20 21  1  0
 21 22  2  0
 21 23  1  0
 14 24  1  0
 24 25  1  0
  9 26  1  0
  6  2  1  0
 18 13  1  0
 23 15  1  0
  1 27  1  0
  1 28  1  0
  1 29  1  0
  2 30  1  0
  3 31  1  0
  3 32  1  0
  4 33  1  0
  8 34  1  0
  8 35  1  0
 10 36  1  0
 11 37  1  0
 11 38  1  0
 17 39  1  0
 18 40  1  0
 19 41  1  0
 20 42  1  0
 25 43  1  0
 25 44  1  0
 25 45  1  0
 26 46  1  0
 26 47  1  0
 26 48  1  0
M  END
>  <Name>  (597) 
Clauslactone-L

>  <PubChem ID>  (597) 
10689733

>  <CDB ID>  (597) 
CDB0597

>  <Smiles>  (597) 
CC1CC(OC1=O)CC(=CCOC2=C(C3=C(C=C2)C=CC(=O)O3)OC)C

>  <Chemical class>  (597) 
7,8-Dioxygenated Coumarins

>  <Natural source>  (597) 
Clausena excavata

>  <Molecular Formula>  (597) 
C20H22O6

>  <InChI-Key>  (597) 
FBTBKSRGEOAAEU-UHFFFAOYSA-N

>  <Total Molweight>  (597) 
358.389

>  <cLogP>  (597) 
3.0777

>  <cLogS>  (597) 
-3.939

>  <H-Acceptors>  (597) 
6

>  <H-Donors>  (597) 
0

>  <Rotatable Bonds>  (597) 
6

>  <Polar Surface Area>  (597) 
71.06

$$$$
CDB0598
     RDKit          3D

 46 48  0  0  0  0  0  0  0  0999 V2000
   -3.2652    1.0646   -2.7186 C   0  0  0  0  0  0  0  0  0  0  0  0
   -3.4760   -0.2575   -2.2243 O   0  0  0  0  0  0  0  0  0  0  0  0
   -3.4751   -0.2522   -0.8509 C   0  0  0  0  0  0  0  0  0  0  0  0
   -2.2760   -0.4077   -0.1389 C   0  0  0  0  0  0  0  0  0  0  0  0
   -1.1347   -0.4982   -0.8907 O   0  0  0  0  0  0  0  0  0  0  0  0
    0.0753   -0.8379   -0.2206 C   0  0  0  0  0  0  0  0  0  0  0  0
    1.1331   -1.0039   -1.2747 C   0  0  0  0  0  0  0  0  0  0  0  0
    2.3153   -0.3618   -1.3775 C   0  0  0  0  0  0  0  0  0  0  0  0
    3.2355   -0.6415   -2.5380 C   0  0  0  0  0  0  0  0  0  0  0  0
    2.7871    0.7079   -0.4129 C   0  0  0  0  0  0  0  0  0  0  0  0
    3.4315    0.1656    0.8725 C   0  0  1  0  0  0  0  0  0  0  0  0
    4.7923   -0.3949    0.7020 C   0  0  0  0  0  0  0  0  0  0  0  0
    5.6879    0.2958    1.4048 C   0  0  0  0  0  0  0  0  0  0  0  0
    7.1470    0.1121    1.5487 C   0  0  0  0  0  0  0  0  0  0  0  0
    4.9521    1.3623    2.0920 C   0  0  0  0  0  0  0  0  0  0  0  0
    5.4422    2.2006    2.8254 O   0  0  0  0  0  0  0  0  0  0  0  0
    3.6304    1.2570    1.7826 O   0  0  0  0  0  0  0  0  0  0  0  0
   -2.3218   -0.4444    1.2594 C   0  0  0  0  0  0  0  0  0  0  0  0
   -3.5462   -0.3477    1.9368 C   0  0  0  0  0  0  0  0  0  0  0  0
   -4.7391   -0.2151    1.2243 C   0  0  0  0  0  0  0  0  0  0  0  0
   -4.6914   -0.1732   -0.1666 C   0  0  0  0  0  0  0  0  0  0  0  0
   -5.8780   -0.0417   -0.9202 O   0  0  0  0  0  0  0  0  0  0  0  0
   -7.1183    0.0514   -0.3087 C   0  0  0  0  0  0  0  0  0  0  0  0
   -8.1597    0.1759   -0.9427 O   0  0  0  0  0  0  0  0  0  0  0  0
   -7.1392    0.0012    1.1637 C   0  0  0  0  0  0  0  0  0  0  0  0
   -6.0265   -0.1226    1.8932 C   0  0  0  0  0  0  0  0  0  0  0  0
   -4.0524    1.7465   -2.3782 H   0  0  0  0  0  0  0  0  0  0  0  0
   -3.3038    1.0231   -3.8112 H   0  0  0  0  0  0  0  0  0  0  0  0
   -2.2808    1.4481   -2.4300 H   0  0  0  0  0  0  0  0  0  0  0  0
    0.3392   -0.0549    0.4962 H   0  0  0  0  0  0  0  0  0  0  0  0
   -0.0375   -1.7937    0.3050 H   0  0  0  0  0  0  0  0  0  0  0  0
    0.8693   -1.7383   -2.0362 H   0  0  0  0  0  0  0  0  0  0  0  0
    3.3939    0.2701   -3.1234 H   0  0  0  0  0  0  0  0  0  0  0  0
    4.2063   -1.0006   -2.1851 H   0  0  0  0  0  0  0  0  0  0  0  0
    2.8301   -1.4014   -3.2145 H   0  0  0  0  0  0  0  0  0  0  0  0
    3.4822    1.3898   -0.9226 H   0  0  0  0  0  0  0  0  0  0  0  0
    1.9440    1.3579   -0.1436 H   0  0  0  0  0  0  0  0  0  0  0  0
    2.7758   -0.5624    1.3634 H   0  0  0  0  0  0  0  0  0  0  0  0
    5.0165   -1.2607    0.0961 H   0  0  0  0  0  0  0  0  0  0  0  0
    7.4114   -0.0648    2.5959 H   0  0  0  0  0  0  0  0  0  0  0  0
    7.6826    1.0015    1.2019 H   0  0  0  0  0  0  0  0  0  0  0  0
    7.5005   -0.7429    0.9634 H   0  0  0  0  0  0  0  0  0  0  0  0
   -1.4226   -0.5463    1.8588 H   0  0  0  0  0  0  0  0  0  0  0  0
   -3.5516   -0.3808    3.0243 H   0  0  0  0  0  0  0  0  0  0  0  0
   -8.1182    0.0725    1.6218 H   0  0  0  0  0  0  0  0  0  0  0  0
   -6.0672   -0.1570    2.9763 H   0  0  0  0  0  0  0  0  0  0  0  0
  1  2  1  0
  2  3  1  0
  3  4  2  0
  4  5  1  0
  5  6  1  0
  6  7  1  0
  7  8  2  3
  8  9  1  0
  8 10  1  0
 10 11  1  0
 11 12  1  0
 12 13  2  0
 13 14  1  0
 13 15  1  0
 15 16  2  0
 15 17  1  0
  4 18  1  0
 18 19  2  0
 19 20  1  0
 20 21  2  0
 21 22  1  0
 22 23  1  0
 23 24  2  0
 23 25  1  0
 25 26  2  0
 21  3  1  0
 17 11  1  0
 26 20  1  0
  1 27  1  0
  1 28  1  0
  1 29  1  0
  6 30  1  0
  6 31  1  0
  7 32  1  0
  9 33  1  0
  9 34  1  0
  9 35  1  0
 10 36  1  0
 10 37  1  0
 11 38  1  1
 12 39  1  0
 14 40  1  0
 14 41  1  0
 14 42  1  0
 18 43  1  0
 19 44  1  0
 25 45  1  0
 26 46  1  0
M  END
>  <Name>  (598) 
Clauslactone-K

>  <PubChem ID>  (598) 
10689615

>  <CDB ID>  (598) 
CDB0598

>  <Smiles>  (598) 
COC1=C(OCC=C(C)C[C@H]2C=C(C)C(=O)O2)C=CC2=C1OC(=O)C=C2

>  <Chemical class>  (598) 
7,8-Dioxygenated Coumarins

>  <Natural source>  (598) 
Clausena excavata

>  <Molecular Formula>  (598) 
C20H20O6

>  <InChI-Key>  (598) 
QUKDLMFYXITHBM-HNNXBMFYSA-N

>  <Total Molweight>  (598) 
356.373

>  <cLogP>  (598) 
2.9732

>  <cLogS>  (598) 
-3.675

>  <H-Acceptors>  (598) 
6

>  <H-Donors>  (598) 
0

>  <Rotatable Bonds>  (598) 
6

>  <Polar Surface Area>  (598) 
71.06

$$$$
CDB0599
     RDKit          3D

 46 49  0  0  0  0  0  0  0  0999 V2000
   -4.1705    1.6898    3.3039 C   0  0  0  0  0  0  0  0  0  0  0  0
   -4.7232    1.2399    2.0752 O   0  0  0  0  0  0  0  0  0  0  0  0
   -3.8547    0.7689    1.1274 C   0  0  0  0  0  0  0  0  0  0  0  0
   -2.4804    0.5981    1.3110 C   0  0  0  0  0  0  0  0  0  0  0  0
   -1.6639    0.1134    0.2704 C   0  0  0  0  0  0  0  0  0  0  0  0
   -2.2465   -0.2027   -0.9710 C   0  0  0  0  0  0  0  0  0  0  0  0
   -3.6182   -0.0506   -1.1667 C   0  0  0  0  0  0  0  0  0  0  0  0
   -4.4068    0.4361   -0.1143 C   0  0  0  0  0  0  0  0  0  0  0  0
   -5.7578    0.5905   -0.3207 O   0  0  0  0  0  0  0  0  0  0  0  0
   -4.3031   -0.3296   -2.3231 O   0  0  0  0  0  0  0  0  0  0  0  0
   -3.5531   -0.8986   -3.3900 C   0  0  0  0  0  0  0  0  0  0  0  0
   -0.1668   -0.0281    0.4962 C   0  0  0  0  0  0  0  0  0  0  0  0
    0.6460    1.1300   -0.1134 C   0  0  0  0  0  0  0  0  0  0  0  0
    2.0511    0.9521    0.1719 O   0  0  0  0  0  0  0  0  0  0  0  0
    2.4741   -0.3304   -0.0471 C   0  0  0  0  0  0  0  0  0  0  0  0
    1.5960   -1.4045   -0.1856 C   0  0  0  0  0  0  0  0  0  0  0  0
    0.2363   -1.2809   -0.0979 O   0  0  0  0  0  0  0  0  0  0  0  0
    2.0873   -2.6870   -0.4366 C   0  0  0  0  0  0  0  0  0  0  0  0
    3.4653   -2.9096   -0.5212 C   0  0  0  0  0  0  0  0  0  0  0  0
    4.3555   -1.8459   -0.3574 C   0  0  0  0  0  0  0  0  0  0  0  0
    3.8483   -0.5674   -0.1208 C   0  0  0  0  0  0  0  0  0  0  0  0
    4.7233    0.5295    0.0418 O   0  0  0  0  0  0  0  0  0  0  0  0
    6.0997    0.3766   -0.0226 C   0  0  0  0  0  0  0  0  0  0  0  0
    6.8741    1.3158    0.1173 O   0  0  0  0  0  0  0  0  0  0  0  0
    6.6064   -0.9842   -0.2709 C   0  0  0  0  0  0  0  0  0  0  0  0
    5.7954   -2.0342   -0.4298 C   0  0  0  0  0  0  0  0  0  0  0  0
    0.2737    2.5017    0.4602 C   0  0  0  0  0  0  0  0  0  0  0  0
    0.4238    2.5176    1.8805 O   0  0  0  0  0  0  0  0  0  0  0  0
   -4.9896    2.0780    3.9169 H   0  0  0  0  0  0  0  0  0  0  0  0
   -3.7078    0.8634    3.8531 H   0  0  0  0  0  0  0  0  0  0  0  0
   -3.4591    2.5070    3.1439 H   0  0  0  0  0  0  0  0  0  0  0  0
   -2.0122    0.8474    2.2597 H   0  0  0  0  0  0  0  0  0  0  0  0
   -1.6053   -0.5738   -1.7648 H   0  0  0  0  0  0  0  0  0  0  0  0
   -5.9110    0.2974   -1.2380 H   0  0  0  0  0  0  0  0  0  0  0  0
   -3.1073   -1.8544   -3.0951 H   0  0  0  0  0  0  0  0  0  0  0  0
   -4.2436   -1.0943   -4.2160 H   0  0  0  0  0  0  0  0  0  0  0  0
   -2.7914   -0.2000   -3.7514 H   0  0  0  0  0  0  0  0  0  0  0  0
    0.0332   -0.1216    1.5729 H   0  0  0  0  0  0  0  0  0  0  0  0
    0.5324    1.1590   -1.2059 H   0  0  0  0  0  0  0  0  0  0  0  0
    1.3953   -3.5178   -0.5536 H   0  0  0  0  0  0  0  0  0  0  0  0
    3.8285   -3.9173   -0.7094 H   0  0  0  0  0  0  0  0  0  0  0  0
    7.6842   -1.0825   -0.3172 H   0  0  0  0  0  0  0  0  0  0  0  0
    6.1929   -3.0268   -0.6117 H   0  0  0  0  0  0  0  0  0  0  0  0
    0.9318    3.2784    0.0554 H   0  0  0  0  0  0  0  0  0  0  0  0
   -0.7569    2.7773    0.2201 H   0  0  0  0  0  0  0  0  0  0  0  0
    1.3747    2.3743    2.0529 H   0  0  0  0  0  0  0  0  0  0  0  0
  1  2  1  0
  2  3  1  0
  3  4  2  0
  4  5  1  0
  5  6  2  0
  6  7  1  0
  7  8  2  0
  8  9  1  0
  7 10  1  0
 10 11  1  0
  5 12  1  0
 12 13  1  0
 13 14  1  0
 14 15  1  0
 15 16  2  0
 16 17  1  0
 16 18  1  0
 18 19  2  0
 19 20  1  0
 20 21  2  0
 21 22  1  0
 22 23  1  0
 23 24  2  0
 23 25  1  0
 25 26  2  0
 13 27  1  0
 27 28  1  0
  8  3  1  0
 17 12  1  0
 21 15  1  0
 26 20  1  0
  1 29  1  0
  1 30  1  0
  1 31  1  0
  4 32  1  0
  6 33  1  0
  9 34  1  0
 11 35  1  0
 11 36  1  0
 11 37  1  0
 12 38  1  0
 13 39  1  0
 18 40  1  0
 19 41  1  0
 25 42  1  0
 26 43  1  0
 27 44  1  0
 27 45  1  0
 28 46  1  0
M  END
>  <Name>  (599) 
Daphneticin

>  <PubChem ID>  (599) 
158341

>  <CDB ID>  (599) 
CDB0599

>  <Smiles>  (599) 
COC1=CC(=CC(=C1O)OC)C2C(OC3=C(O2)C=CC4=C3OC(=O)C=C4)CO

>  <Chemical class>  (599) 
7,8-Dioxygenated Coumarins

>  <Natural source>  (599) 
Daphne tangutica

>  <Molecular Formula>  (599) 
C20H18O8

>  <InChI-Key>  (599) 
QLFQDIADUIVNRF-UHFFFAOYSA-N

>  <Total Molweight>  (599) 
386.355

>  <cLogP>  (599) 
1.9047

>  <cLogS>  (599) 
-3.257

>  <H-Acceptors>  (599) 
8

>  <H-Donors>  (599) 
2

>  <Rotatable Bonds>  (599) 
4

>  <Polar Surface Area>  (599) 
103.68

$$$$
CDB0600
     RDKit          3D

 40 42  0  0  0  0  0  0  0  0999 V2000
    2.7208    1.1997   -2.5112 C   0  0  0  0  0  0  0  0  0  0  0  0
    1.3299    1.0451   -2.4650 C   0  0  0  0  0  0  0  0  0  0  0  0
    0.6407    1.0025   -1.2437 C   0  0  0  0  0  0  0  0  0  0  0  0
    1.3622    1.1603   -0.0609 C   0  0  0  0  0  0  0  0  0  0  0  0
    2.7530    1.3049   -0.1175 C   0  0  0  0  0  0  0  0  0  0  0  0
    3.4436    1.3236   -1.3267 C   0  0  0  0  0  0  0  0  0  0  0  0
    4.8884    1.4806   -1.3147 C   0  0  0  0  0  0  0  0  0  0  0  0
    5.5271    1.6065   -0.1475 C   0  0  0  0  0  0  0  0  0  0  0  0
    4.8210    1.5940    1.1449 C   0  0  0  0  0  0  0  0  0  0  0  0
    5.4357    1.7127    2.1983 O   0  0  0  0  0  0  0  0  0  0  0  0
    3.4419    1.4430    1.1085 O   0  0  0  0  0  0  0  0  0  0  0  0
    0.7473    1.2124    1.1594 O   0  0  0  0  0  0  0  0  0  0  0  0
   -0.7079    0.8236   -1.3801 O   0  0  0  0  0  0  0  0  0  0  0  0
   -1.4107    0.1756   -0.3053 C   0  0  0  0  0  0  0  0  0  0  0  0
   -2.8715   -0.0054   -0.7824 C   0  0  0  0  0  0  0  0  0  0  0  0
   -3.6574   -0.8779    0.2008 C   0  0  0  0  0  0  0  0  0  0  0  0
   -2.9125   -2.1719    0.5261 C   0  0  0  0  0  0  0  0  0  0  0  0
   -1.4861   -1.8773    1.0003 C   0  0  0  0  0  0  0  0  0  0  0  0
   -0.8223   -1.1030   -0.0136 O   0  0  0  0  0  0  0  0  0  0  0  0
   -1.4360   -1.2491    2.4042 C   0  0  0  0  0  0  0  0  0  0  0  0
   -0.0987   -1.2558    2.8988 O   0  0  0  0  0  0  0  0  0  0  0  0
   -2.8813   -2.9664   -0.6779 O   0  0  0  0  0  0  0  0  0  0  0  0
   -4.9373   -1.1836   -0.3798 O   0  0  0  0  0  0  0  0  0  0  0  0
   -3.5557    1.2540   -0.9033 O   0  0  0  0  0  0  0  0  0  0  0  0
    3.2195    1.2179   -3.4770 H   0  0  0  0  0  0  0  0  0  0  0  0
    0.7724    0.9429   -3.3941 H   0  0  0  0  0  0  0  0  0  0  0  0
    5.4282    1.4935   -2.2552 H   0  0  0  0  0  0  0  0  0  0  0  0
    6.6026    1.7254   -0.0953 H   0  0  0  0  0  0  0  0  0  0  0  0
    1.4490    1.1258    1.8313 H   0  0  0  0  0  0  0  0  0  0  0  0
   -1.4203    0.8388    0.5642 H   0  0  0  0  0  0  0  0  0  0  0  0
   -2.8831   -0.4550   -1.7833 H   0  0  0  0  0  0  0  0  0  0  0  0
   -3.8642   -0.3113    1.1158 H   0  0  0  0  0  0  0  0  0  0  0  0
   -3.4696   -2.7584    1.2642 H   0  0  0  0  0  0  0  0  0  0  0  0
   -0.9274   -2.8208    1.0332 H   0  0  0  0  0  0  0  0  0  0  0  0
   -2.0460   -1.8335    3.1007 H   0  0  0  0  0  0  0  0  0  0  0  0
   -1.7895   -0.2156    2.4148 H   0  0  0  0  0  0  0  0  0  0  0  0
   -0.1105   -0.8191    3.7679 H   0  0  0  0  0  0  0  0  0  0  0  0
   -2.0112   -2.8158   -1.1010 H   0  0  0  0  0  0  0  0  0  0  0  0
   -4.7937   -1.9899   -0.9194 H   0  0  0  0  0  0  0  0  0  0  0  0
   -4.4903    1.0269   -1.0786 H   0  0  0  0  0  0  0  0  0  0  0  0
  1  2  2  0
  2  3  1  0
  3  4  2  0
  4  5  1  0
  5  6  2  0
  6  7  1  0
  7  8  2  0
  8  9  1  0
  9 10  2  0
  9 11  1  0
  4 12  1  0
  3 13  1  0
 13 14  1  0
 14 15  1  0
 15 16  1  0
 16 17  1  0
 17 18  1  0
 18 19  1  0
 18 20  1  0
 20 21  1  0
 17 22  1  0
 16 23  1  0
 15 24  1  0
  6  1  1  0
 11  5  1  0
 19 14  1  0
  1 25  1  0
  2 26  1  0
  7 27  1  0
  8 28  1  0
 12 29  1  0
 14 30  1  0
 15 31  1  0
 16 32  1  0
 17 33  1  0
 18 34  1  0
 20 35  1  0
 20 36  1  0
 21 37  1  0
 22 38  1  0
 23 39  1  0
 24 40  1  0
M  END
>  <Name>  (600) 
Daphnin

>  <PubChem ID>  (600) 
439499

>  <CDB ID>  (600) 
CDB0600

>  <Smiles>  (600) 
C1=CC(=C(C2=C1C=CC(=O)O2)O)OC3C(C(C(C(O3)CO)O)O)O

>  <Chemical class>  (600) 
7,8-Dioxygenated Coumarins

>  <Natural source>  (600) 
Daphne odora

>  <Molecular Formula>  (600) 
C15H16O9

>  <InChI-Key>  (600) 
HOIXTKAYCMNVMY-UHFFFAOYSA-N

>  <Total Molweight>  (600) 
340.283

>  <cLogP>  (600) 
-1.1833

>  <cLogS>  (600) 
-1.664

>  <H-Acceptors>  (600) 
9

>  <H-Donors>  (600) 
5

>  <Rotatable Bonds>  (600) 
3

>  <Polar Surface Area>  (600) 
145.91

$$$$
CDB0601
     RDKit          3D

 61 64  0  0  0  0  0  0  0  0999 V2000
    0.1013    4.2853    1.5917 C   0  0  0  0  0  0  0  0  0  0  0  0
   -0.4420    3.0559    1.9917 C   0  0  0  0  0  0  0  0  0  0  0  0
    0.0696    1.8543    1.4914 C   0  0  0  0  0  0  0  0  0  0  0  0
    1.1504    1.8981    0.6001 C   0  0  0  0  0  0  0  0  0  0  0  0
    1.6993    3.1275    0.2263 C   0  0  0  0  0  0  0  0  0  0  0  0
    1.1784    4.3259    0.7058 C   0  0  0  0  0  0  0  0  0  0  0  0
    1.7804    5.5801    0.2848 C   0  0  0  0  0  0  0  0  0  0  0  0
    2.8293    5.5613   -0.5428 C   0  0  0  0  0  0  0  0  0  0  0  0
    3.4084    4.3082   -1.0556 C   0  0  0  0  0  0  0  0  0  0  0  0
    4.3754    4.3264   -1.8068 O   0  0  0  0  0  0  0  0  0  0  0  0
    2.8035    3.1262   -0.6522 O   0  0  0  0  0  0  0  0  0  0  0  0
    1.7214    0.7424    0.1329 O   0  0  0  0  0  0  0  0  0  0  0  0
    1.0540    0.2661   -1.0479 C   0  0  0  0  0  0  0  0  0  0  0  0
    2.0518    0.2804   -2.2387 C   0  0  0  0  0  0  0  0  0  0  0  0
    1.5825   -0.7736   -3.2374 C   0  0  0  0  0  0  0  0  0  0  0  0
    1.7147   -2.1686   -2.6080 C   0  0  0  0  0  0  0  0  0  0  0  0
    1.3619   -2.1188   -1.0965 C   0  0  0  0  0  0  0  0  0  0  0  0
    0.4720   -1.0308   -0.8095 O   0  0  0  0  0  0  0  0  0  0  0  0
    0.7308   -3.4181   -0.5879 C   0  0  0  0  0  0  0  0  0  0  0  0
    1.5153   -4.5510   -0.9575 O   0  0  0  0  0  0  0  0  0  0  0  0
    0.8796   -3.0534   -3.3735 O   0  0  0  0  0  0  0  0  0  0  0  0
    2.3207   -0.7141   -4.4639 O   0  0  0  0  0  0  0  0  0  0  0  0
    3.3890   -0.0352   -1.7965 O   0  0  0  0  0  0  0  0  0  0  0  0
   -0.3669    0.6150    1.8707 O   0  0  0  0  0  0  0  0  0  0  0  0
   -1.7669    0.4315    2.1080 C   0  0  0  0  0  0  0  0  0  0  0  0
   -2.5672    0.4189    0.7752 C   0  0  0  0  0  0  0  0  0  0  0  0
   -3.6873   -0.6218    0.8395 C   0  0  0  0  0  0  0  0  0  0  0  0
   -3.1318   -2.0225    1.1336 C   0  0  0  0  0  0  0  0  0  0  0  0
   -1.8877   -1.9471    2.0321 C   0  0  0  0  0  0  0  0  0  0  0  0
   -1.9819   -0.7783    2.8625 O   0  0  0  0  0  0  0  0  0  0  0  0
   -1.7826   -3.1990    2.9119 C   0  0  0  0  0  0  0  0  0  0  0  0
   -0.5129   -3.2400    3.5640 O   0  0  0  0  0  0  0  0  0  0  0  0
   -2.7994   -2.6892   -0.0886 O   0  0  0  0  0  0  0  0  0  0  0  0
   -4.4245   -0.6507   -0.3944 O   0  0  0  0  0  0  0  0  0  0  0  0
   -3.1587    1.7023    0.4788 O   0  0  0  0  0  0  0  0  0  0  0  0
   -0.3154    5.2041    1.9993 H   0  0  0  0  0  0  0  0  0  0  0  0
   -1.2414    3.0755    2.7246 H   0  0  0  0  0  0  0  0  0  0  0  0
    1.3727    6.5159    0.6514 H   0  0  0  0  0  0  0  0  0  0  0  0
    3.3099    6.4726   -0.8780 H   0  0  0  0  0  0  0  0  0  0  0  0
    0.2021    0.9050   -1.3198 H   0  0  0  0  0  0  0  0  0  0  0  0
    2.1077    1.2751   -2.6927 H   0  0  0  0  0  0  0  0  0  0  0  0
    0.5384   -0.5790   -3.5148 H   0  0  0  0  0  0  0  0  0  0  0  0
    2.7345   -2.5542   -2.7297 H   0  0  0  0  0  0  0  0  0  0  0  0
    2.2870   -1.9584   -0.5272 H   0  0  0  0  0  0  0  0  0  0  0  0
    0.6220   -3.4002    0.5016 H   0  0  0  0  0  0  0  0  0  0  0  0
   -0.2757   -3.5478   -0.9993 H   0  0  0  0  0  0  0  0  0  0  0  0
    2.2607   -4.5918   -0.3305 H   0  0  0  0  0  0  0  0  0  0  0  0
    0.9918   -3.9416   -2.9747 H   0  0  0  0  0  0  0  0  0  0  0  0
    2.0734   -1.5223   -4.9525 H   0  0  0  0  0  0  0  0  0  0  0  0
    3.5947    0.6051   -1.0880 H   0  0  0  0  0  0  0  0  0  0  0  0
   -2.1444    1.2185    2.7662 H   0  0  0  0  0  0  0  0  0  0  0  0
   -1.9106    0.2019   -0.0736 H   0  0  0  0  0  0  0  0  0  0  0  0
   -4.3984   -0.3313    1.6230 H   0  0  0  0  0  0  0  0  0  0  0  0
   -3.9277   -2.6139    1.6014 H   0  0  0  0  0  0  0  0  0  0  0  0
   -0.9703   -1.8810    1.4357 H   0  0  0  0  0  0  0  0  0  0  0  0
   -2.5548   -3.1917    3.6884 H   0  0  0  0  0  0  0  0  0  0  0  0
   -1.8767   -4.1092    2.3113 H   0  0  0  0  0  0  0  0  0  0  0  0
   -0.5292   -3.9982    4.1718 H   0  0  0  0  0  0  0  0  0  0  0  0
   -3.4602   -2.3721   -0.7411 H   0  0  0  0  0  0  0  0  0  0  0  0
   -4.4398    0.2713   -0.7229 H   0  0  0  0  0  0  0  0  0  0  0  0
   -3.7301    1.9538    1.2265 H   0  0  0  0  0  0  0  0  0  0  0  0
  1  2  2  0
  2  3  1  0
  3  4  2  0
  4  5  1  0
  5  6  2  0
  6  7  1  0
  7  8  2  0
  8  9  1  0
  9 10  2  0
  9 11  1  0
  4 12  1  0
 12 13  1  0
 13 14  1  0
 14 15  1  0
 15 16  1  0
 16 17  1  0
 17 18  1  0
 17 19  1  0
 19 20  1  0
 16 21  1  0
 15 22  1  0
 14 23  1  0
  3 24  1  0
 24 25  1  0
 25 26  1  0
 26 27  1  0
 27 28  1  0
 28 29  1  0
 29 30  1  0
 29 31  1  0
 31 32  1  0
 28 33  1  0
 27 34  1  0
 26 35  1  0
  6  1  1  0
 11  5  1  0
 18 13  1  0
 30 25  1  0
  1 36  1  0
  2 37  1  0
  7 38  1  0
  8 39  1  0
 13 40  1  0
 14 41  1  0
 15 42  1  0
 16 43  1  0
 17 44  1  0
 19 45  1  0
 19 46  1  0
 20 47  1  0
 21 48  1  0
 22 49  1  0
 23 50  1  0
 25 51  1  0
 26 52  1  0
 27 53  1  0
 28 54  1  0
 29 55  1  0
 31 56  1  0
 31 57  1  0
 32 58  1  0
 33 59  1  0
 34 60  1  0
 35 61  1  0
M  END
>  <Name>  (601) 
Daphneside

>  <PubChem ID>  (601) 
15101829

>  <CDB ID>  (601) 
CDB0601

>  <Smiles>  (601) 
C1=CC(=C(C2=C1C=CC(=O)O2)OC3C(C(C(C(O3)CO)O)O)O)OC4C(C(C(C(O4)CO)O)O)O

>  <Chemical class>  (601) 
7,8-Dioxygenated Coumarins

>  <Natural source>  (601) 
Daphne arisanensis

>  <Molecular Formula>  (601) 
C21H26O14

>  <InChI-Key>  (601) 
AWXQCKPVCRTEHJ-UHFFFAOYSA-N

>  <Total Molweight>  (601) 
502.423

>  <cLogP>  (601) 
-3.1726

>  <cLogS>  (601) 
-1.55

>  <H-Acceptors>  (601) 
14

>  <H-Donors>  (601) 
8

>  <Rotatable Bonds>  (601) 
6

>  <Polar Surface Area>  (601) 
225.06

$$$$
CDB0602
     RDKit          3D

 35 36  0  0  0  0  0  0  0  0999 V2000
    2.5004    0.1079   -1.2033 C   0  0  0  0  0  0  0  0  0  0  0  0
    1.6265   -0.5598   -0.1116 C   0  0  0  0  0  0  0  0  0  0  0  0
    2.3015   -0.4016    1.2679 C   0  0  0  0  0  0  0  0  0  0  0  0
    1.6140   -2.0380   -0.5629 C   0  0  0  0  0  0  0  0  0  0  0  0
    2.0250   -3.1224    0.1118 C   0  0  0  0  0  0  0  0  0  0  0  0
    0.1843    0.0379   -0.0352 C   0  0  0  0  0  0  0  0  0  0  0  0
   -0.9111   -0.8750    0.0493 C   0  0  0  0  0  0  0  0  0  0  0  0
   -2.2457   -0.4624    0.0502 C   0  0  0  0  0  0  0  0  0  0  0  0
   -2.5202    0.8960   -0.0221 C   0  0  0  0  0  0  0  0  0  0  0  0
   -1.4802    1.8196   -0.0532 C   0  0  0  0  0  0  0  0  0  0  0  0
   -0.1279    1.4264   -0.0229 C   0  0  0  0  0  0  0  0  0  0  0  0
    0.8405    2.5200    0.0790 C   0  0  0  0  0  0  0  0  0  0  0  0
    0.4664    3.8012    0.0135 C   0  0  0  0  0  0  0  0  0  0  0  0
   -0.9335    4.2038   -0.1473 C   0  0  0  0  0  0  0  0  0  0  0  0
   -1.2380    5.3845   -0.2645 O   0  0  0  0  0  0  0  0  0  0  0  0
   -1.8596    3.1824   -0.1262 O   0  0  0  0  0  0  0  0  0  0  0  0
   -3.8209    1.3252   -0.0454 O   0  0  0  0  0  0  0  0  0  0  0  0
   -3.3476   -1.2759    0.1085 O   0  0  0  0  0  0  0  0  0  0  0  0
   -3.1124   -2.6770    0.1895 C   0  0  0  0  0  0  0  0  0  0  0  0
    3.3909   -0.4953   -1.4267 H   0  0  0  0  0  0  0  0  0  0  0  0
    1.9443    0.2321   -2.1407 H   0  0  0  0  0  0  0  0  0  0  0  0
    2.8916    1.0847   -0.9175 H   0  0  0  0  0  0  0  0  0  0  0  0
    1.7343   -0.9181    2.0520 H   0  0  0  0  0  0  0  0  0  0  0  0
    2.3810    0.6437    1.5791 H   0  0  0  0  0  0  0  0  0  0  0  0
    3.3210   -0.8054    1.2647 H   0  0  0  0  0  0  0  0  0  0  0  0
    1.2269   -2.2035   -1.5711 H   0  0  0  0  0  0  0  0  0  0  0  0
    2.4304   -3.0742    1.1166 H   0  0  0  0  0  0  0  0  0  0  0  0
    1.9639   -4.1074   -0.3429 H   0  0  0  0  0  0  0  0  0  0  0  0
   -0.7038   -1.9380    0.1162 H   0  0  0  0  0  0  0  0  0  0  0  0
    1.8822    2.3143    0.2664 H   0  0  0  0  0  0  0  0  0  0  0  0
    1.1807    4.6109    0.0994 H   0  0  0  0  0  0  0  0  0  0  0  0
   -4.3631    0.5145   -0.0047 H   0  0  0  0  0  0  0  0  0  0  0  0
   -2.5673   -2.9333    1.1039 H   0  0  0  0  0  0  0  0  0  0  0  0
   -4.0851   -3.1765    0.2311 H   0  0  0  0  0  0  0  0  0  0  0  0
   -2.5892   -3.0412   -0.7008 H   0  0  0  0  0  0  0  0  0  0  0  0
  1  2  1  0
  2  3  1  0
  2  4  1  0
  4  5  2  0
  2  6  1  0
  6  7  1  0
  7  8  2  0
  8  9  1  0
  9 10  2  0
 10 11  1  0
 11 12  1  0
 12 13  2  0
 13 14  1  0
 14 15  2  0
 14 16  1  0
  9 17  1  0
  8 18  1  0
 18 19  1  0
 11  6  2  0
 16 10  1  0
  1 20  1  0
  1 21  1  0
  1 22  1  0
  3 23  1  0
  3 24  1  0
  3 25  1  0
  4 26  1  0
  5 27  1  0
  5 28  1  0
  7 29  1  0
 12 30  1  0
 13 31  1  0
 17 32  1  0
 19 33  1  0
 19 34  1  0
 19 35  1  0
M  END
>  <Name>  (602) 
Celerin

>  <PubChem ID>  (602) 
156431

>  <CDB ID>  (602) 
CDB0602

>  <Smiles>  (602) 
CC(C)(C=C)C1=CC(=C(C2=C1C=CC(=O)O2)O)OC

>  <Chemical class>  (602) 
7,8-Dioxygenated Coumarins

>  <Natural source>  (602) 
Apium graveolens

>  <Molecular Formula>  (602) 
C15H16O4

>  <InChI-Key>  (602) 
KATNIMBVOAPAGX-UHFFFAOYSA-N

>  <Total Molweight>  (602) 
260.288

>  <cLogP>  (602) 
2.9325

>  <cLogS>  (602) 
-3.461

>  <H-Acceptors>  (602) 
4

>  <H-Donors>  (602) 
1

>  <Rotatable Bonds>  (602) 
3

>  <Polar Surface Area>  (602) 
55.76

$$$$
CDB0603
     RDKit          3D

 28 29  0  0  0  0  0  0  0  0999 V2000
   -2.6784   -2.3122    1.0029 C   0  0  0  0  0  0  0  0  0  0  0  0
   -2.0921   -1.2374    1.7356 O   0  0  0  0  0  0  0  0  0  0  0  0
   -1.1632   -0.5833    0.9678 C   0  0  0  0  0  0  0  0  0  0  0  0
   -1.5105    0.6319    0.3737 C   0  0  0  0  0  0  0  0  0  0  0  0
   -0.5859    1.3637   -0.3685 C   0  0  0  0  0  0  0  0  0  0  0  0
    0.7164    0.8740   -0.5096 C   0  0  0  0  0  0  0  0  0  0  0  0
    1.0915   -0.3414    0.0944 C   0  0  0  0  0  0  0  0  0  0  0  0
    0.1443   -1.0672    0.8402 C   0  0  0  0  0  0  0  0  0  0  0  0
    0.4482   -2.2521    1.4651 O   0  0  0  0  0  0  0  0  0  0  0  0
    2.4754   -0.8675   -0.0371 C   0  0  0  0  0  0  0  0  0  0  0  0
    2.8309   -1.9090    0.4968 O   0  0  0  0  0  0  0  0  0  0  0  0
    3.2470   -0.0601   -0.8029 O   0  0  0  0  0  0  0  0  0  0  0  0
    4.5914   -0.5186   -0.9619 C   0  0  0  0  0  0  0  0  0  0  0  0
   -0.9993    2.6209   -0.9718 C   0  0  0  0  0  0  0  0  0  0  0  0
   -2.2544    3.0495   -0.8075 C   0  0  0  0  0  0  0  0  0  0  0  0
   -3.2547    2.2935   -0.0337 C   0  0  0  0  0  0  0  0  0  0  0  0
   -4.3996    2.7136    0.0838 O   0  0  0  0  0  0  0  0  0  0  0  0
   -2.8324    1.1016    0.5341 O   0  0  0  0  0  0  0  0  0  0  0  0
   -3.4840   -2.7319    1.6129 H   0  0  0  0  0  0  0  0  0  0  0  0
   -1.9531   -3.1088    0.8093 H   0  0  0  0  0  0  0  0  0  0  0  0
   -3.1160   -1.9605    0.0617 H   0  0  0  0  0  0  0  0  0  0  0  0
    1.4406    1.4456   -1.0864 H   0  0  0  0  0  0  0  0  0  0  0  0
    1.3979   -2.4611    1.3300 H   0  0  0  0  0  0  0  0  0  0  0  0
    5.1225    0.2017   -1.5902 H   0  0  0  0  0  0  0  0  0  0  0  0
    4.6071   -1.4925   -1.4610 H   0  0  0  0  0  0  0  0  0  0  0  0
    5.0954   -0.5709    0.0083 H   0  0  0  0  0  0  0  0  0  0  0  0
   -0.2830    3.1979   -1.5467 H   0  0  0  0  0  0  0  0  0  0  0  0
   -2.6019    3.9804   -1.2393 H   0  0  0  0  0  0  0  0  0  0  0  0
  1  2  1  0
  2  3  1  0
  3  4  1  0
  4  5  2  0
  5  6  1  0
  6  7  2  0
  7  8  1  0
  8  9  1  0
  7 10  1  0
 10 11  2  0
 10 12  1  0
 12 13  1  0
  5 14  1  0
 14 15  2  0
 15 16  1  0
 16 17  2  0
 16 18  1  0
  8  3  2  0
 18  4  1  0
  1 19  1  0
  1 20  1  0
  1 21  1  0
  6 22  1  0
  9 23  1  0
 13 24  1  0
 13 25  1  0
 13 26  1  0
 14 27  1  0
 15 28  1  0
M  END
>  <Name>  (603) 
Stenocarpin

>  <PubChem ID>  (603) 
101967104

>  <CDB ID>  (603) 
CDB0603

>  <Smiles>  (603) 
COC1=C2C(=CC(=C1O)C(=O)OC)C=CC(=O)O2

>  <Chemical class>  (603) 
7,8-Dioxygenated Coumarins

>  <Natural source>  (603) 
Peucedanum stenocarpum

>  <Molecular Formula>  (603) 
C12H10O6

>  <InChI-Key>  (603) 
ZHVQMCUOORXZKC-UHFFFAOYSA-N

>  <Total Molweight>  (603) 
250.205

>  <cLogP>  (603) 
0.9947

>  <cLogS>  (603) 
-2.233

>  <H-Acceptors>  (603) 
6

>  <H-Donors>  (603) 
1

>  <Rotatable Bonds>  (603) 
3

>  <Polar Surface Area>  (603) 
82.06

$$$$
CDB0604
     RDKit          3D

 35 36  0  0  0  0  0  0  0  0999 V2000
    3.6905    1.2081   -1.5316 C   0  0  0  0  0  0  0  0  0  0  0  0
    3.4672   -0.2086   -1.0789 C   0  0  0  0  0  0  0  0  0  0  0  0
    2.7391   -0.5770   -0.0059 C   0  0  0  0  0  0  0  0  0  0  0  0
    2.0230    0.3071    0.9819 C   0  0  0  0  0  0  0  0  0  0  0  0
    0.5200    0.1967    0.8684 C   0  0  0  0  0  0  0  0  0  0  0  0
   -0.2397    1.1307    0.1541 C   0  0  0  0  0  0  0  0  0  0  0  0
   -1.6360    1.0236    0.0184 C   0  0  0  0  0  0  0  0  0  0  0  0
   -2.2697   -0.0609    0.6315 C   0  0  0  0  0  0  0  0  0  0  0  0
   -1.5373   -1.0141    1.3516 C   0  0  0  0  0  0  0  0  0  0  0  0
   -0.1492   -0.8832    1.4645 C   0  0  0  0  0  0  0  0  0  0  0  0
   -2.2291   -2.1338    1.9754 C   0  0  0  0  0  0  0  0  0  0  0  0
   -3.5551   -2.2448    1.8632 C   0  0  0  0  0  0  0  0  0  0  0  0
   -4.3597   -1.2640    1.1218 C   0  0  0  0  0  0  0  0  0  0  0  0
   -5.5754   -1.3830    1.0310 O   0  0  0  0  0  0  0  0  0  0  0  0
   -3.6712   -0.2109    0.5392 O   0  0  0  0  0  0  0  0  0  0  0  0
   -2.1860    2.0420   -0.7181 O   0  0  0  0  0  0  0  0  0  0  0  0
   -3.5760    2.0007   -1.0093 C   0  0  0  0  0  0  0  0  0  0  0  0
    0.3977    2.1957   -0.4348 O   0  0  0  0  0  0  0  0  0  0  0  0
    4.1263   -1.2450   -1.9513 C   0  0  0  0  0  0  0  0  0  0  0  0
    3.3178    1.3382   -2.5532 H   0  0  0  0  0  0  0  0  0  0  0  0
    4.7608    1.4397   -1.5238 H   0  0  0  0  0  0  0  0  0  0  0  0
    3.1910    1.9521   -0.9088 H   0  0  0  0  0  0  0  0  0  0  0  0
    2.6489   -1.6412    0.2095 H   0  0  0  0  0  0  0  0  0  0  0  0
    2.3222   -0.0001    1.9932 H   0  0  0  0  0  0  0  0  0  0  0  0
    2.3372    1.3527    0.9165 H   0  0  0  0  0  0  0  0  0  0  0  0
    0.4251   -1.6241    2.0178 H   0  0  0  0  0  0  0  0  0  0  0  0
   -1.6536   -2.8691    2.5276 H   0  0  0  0  0  0  0  0  0  0  0  0
   -4.1022   -3.0638    2.3137 H   0  0  0  0  0  0  0  0  0  0  0  0
   -3.8030    2.8571   -1.6520 H   0  0  0  0  0  0  0  0  0  0  0  0
   -4.1729    2.1122   -0.0990 H   0  0  0  0  0  0  0  0  0  0  0  0
   -3.8399    1.0974   -1.5681 H   0  0  0  0  0  0  0  0  0  0  0  0
   -0.3098    2.7006   -0.8819 H   0  0  0  0  0  0  0  0  0  0  0  0
    5.2102   -1.0910   -1.9694 H   0  0  0  0  0  0  0  0  0  0  0  0
    3.7471   -1.1749   -2.9761 H   0  0  0  0  0  0  0  0  0  0  0  0
    3.9418   -2.2651   -1.5981 H   0  0  0  0  0  0  0  0  0  0  0  0
  1  2  1  0
  2  3  2  3
  3  4  1  0
  4  5  1  0
  5  6  2  0
  6  7  1  0
  7  8  2  0
  8  9  1  0
  9 10  2  0
  9 11  1  0
 11 12  2  0
 12 13  1  0
 13 14  2  0
 13 15  1  0
  7 16  1  0
 16 17  1  0
  6 18  1  0
  2 19  1  0
 10  5  1  0
 15  8  1  0
  1 20  1  0
  1 21  1  0
  1 22  1  0
  3 23  1  0
  4 24  1  0
  4 25  1  0
 10 26  1  0
 11 27  1  0
 12 28  1  0
 17 29  1  0
 17 30  1  0
 17 31  1  0
 18 32  1  0
 19 33  1  0
 19 34  1  0
 19 35  1  0
M  END
>  <Name>  (604) 
Apigravin

>  <PubChem ID>  (604) 
85982833

>  <CDB ID>  (604) 
CDB0604

>  <Smiles>  (604) 
CC(=CCC1=C(C(=C2C(=C1)C=CC(=O)O2)OC)O)C

>  <Chemical class>  (604) 
7,8-Dioxygenated Coumarins

>  <Natural source>  (604) 
Apium graveolens

>  <Molecular Formula>  (604) 
C15H16O4

>  <InChI-Key>  (604) 
NYTURSQQJRVHPG-UHFFFAOYSA-N

>  <Total Molweight>  (604) 
260.288

>  <cLogP>  (604) 
3.1042

>  <cLogS>  (604) 
-3.031

>  <H-Acceptors>  (604) 
4

>  <H-Donors>  (604) 
1

>  <Rotatable Bonds>  (604) 
3

>  <Polar Surface Area>  (604) 
55.76

$$$$
CDB0605
     RDKit          3D

 51 54  0  0  0  0  0  0  0  0999 V2000
    3.0290   -3.5706   -0.9821 C   0  0  0  0  0  0  0  0  0  0  0  0
    3.8011   -3.1027    0.2224 C   0  0  0  0  0  0  0  0  0  0  0  0
    4.6464   -3.9256    0.8676 C   0  0  0  0  0  0  0  0  0  0  0  0
    3.5670   -1.6787    0.6865 C   0  0  0  0  0  0  0  0  0  0  0  0
    4.2070   -0.6145   -0.2234 C   0  0  0  0  0  0  0  0  0  0  0  0
    3.1533    0.4256   -0.1629 C   0  0  0  0  0  0  0  0  0  0  0  0
    1.9982   -0.1098    0.3913 C   0  0  0  0  0  0  0  0  0  0  0  0
    2.1401   -1.4263    0.7678 O   0  0  0  0  0  0  0  0  0  0  0  0
    0.8193    0.6146    0.5152 C   0  0  0  0  0  0  0  0  0  0  0  0
    0.8654    1.9461    0.0815 C   0  0  0  0  0  0  0  0  0  0  0  0
    2.0299    2.5058   -0.4868 C   0  0  0  0  0  0  0  0  0  0  0  0
    3.1877    1.7317   -0.6175 C   0  0  0  0  0  0  0  0  0  0  0  0
    2.0098    3.8903   -0.9407 C   0  0  0  0  0  0  0  0  0  0  0  0
    0.8974    4.6197   -0.8184 C   0  0  0  0  0  0  0  0  0  0  0  0
   -0.3315    4.0769   -0.2233 C   0  0  0  0  0  0  0  0  0  0  0  0
   -1.3479    4.7551   -0.1308 O   0  0  0  0  0  0  0  0  0  0  0  0
   -0.2739    2.7702    0.2310 O   0  0  0  0  0  0  0  0  0  0  0  0
   -0.2208   -0.0712    1.0666 O   0  0  0  0  0  0  0  0  0  0  0  0
   -1.5641    0.4056    0.8961 C   0  0  0  0  0  0  0  0  0  0  0  0
   -2.4987   -0.6042    1.6215 C   0  0  0  0  0  0  0  0  0  0  0  0
   -3.1071   -1.5591    0.5953 C   0  0  0  0  0  0  0  0  0  0  0  0
   -3.9460   -0.7607   -0.4142 C   0  0  0  0  0  0  0  0  0  0  0  0
   -3.2414    0.5410   -0.8524 C   0  0  0  0  0  0  0  0  0  0  0  0
   -1.8587    0.5340   -0.4997 O   0  0  0  0  0  0  0  0  0  0  0  0
   -3.9420    1.8098   -0.3419 C   0  0  0  0  0  0  0  0  0  0  0  0
   -5.2694    1.8781   -0.8481 O   0  0  0  0  0  0  0  0  0  0  0  0
   -4.1855   -1.6288   -1.5385 O   0  0  0  0  0  0  0  0  0  0  0  0
   -3.9667   -2.5229    1.2241 O   0  0  0  0  0  0  0  0  0  0  0  0
   -1.8145   -1.2976    2.6751 O   0  0  0  0  0  0  0  0  0  0  0  0
    1.9528   -3.5465   -0.7839 H   0  0  0  0  0  0  0  0  0  0  0  0
    3.2378   -2.9368   -1.8490 H   0  0  0  0  0  0  0  0  0  0  0  0
    3.2880   -4.5984   -1.2589 H   0  0  0  0  0  0  0  0  0  0  0  0
    5.1981   -3.6048    1.7463 H   0  0  0  0  0  0  0  0  0  0  0  0
    4.8019   -4.9500    0.5411 H   0  0  0  0  0  0  0  0  0  0  0  0
    3.9537   -1.5533    1.7087 H   0  0  0  0  0  0  0  0  0  0  0  0
    5.1656   -0.2727    0.1782 H   0  0  0  0  0  0  0  0  0  0  0  0
    4.3448   -0.9538   -1.2547 H   0  0  0  0  0  0  0  0  0  0  0  0
    4.0917    2.1340   -1.0649 H   0  0  0  0  0  0  0  0  0  0  0  0
    2.9058    4.3130   -1.3828 H   0  0  0  0  0  0  0  0  0  0  0  0
    0.8480    5.6490   -1.1518 H   0  0  0  0  0  0  0  0  0  0  0  0
   -1.6709    1.3665    1.4112 H   0  0  0  0  0  0  0  0  0  0  0  0
   -3.3175   -0.0602    2.1077 H   0  0  0  0  0  0  0  0  0  0  0  0
   -2.3180   -2.1374    0.0989 H   0  0  0  0  0  0  0  0  0  0  0  0
   -4.9382   -0.5527    0.0035 H   0  0  0  0  0  0  0  0  0  0  0  0
   -3.2696    0.5867   -1.9484 H   0  0  0  0  0  0  0  0  0  0  0  0
   -3.9859    1.8377    0.7509 H   0  0  0  0  0  0  0  0  0  0  0  0
   -3.3916    2.6973   -0.6723 H   0  0  0  0  0  0  0  0  0  0  0  0
   -5.6224    2.7504   -0.5938 H   0  0  0  0  0  0  0  0  0  0  0  0
   -4.7799   -1.1455   -2.1417 H   0  0  0  0  0  0  0  0  0  0  0  0
   -4.3184   -3.0674    0.4944 H   0  0  0  0  0  0  0  0  0  0  0  0
   -0.9593   -1.5870    2.3004 H   0  0  0  0  0  0  0  0  0  0  0  0
  1  2  1  0
  2  3  2  0
  2  4  1  0
  4  5  1  0
  5  6  1  0
  6  7  2  0
  7  8  1  0
  7  9  1  0
  9 10  2  0
 10 11  1  0
 11 12  2  0
 11 13  1  0
 13 14  2  0
 14 15  1  0
 15 16  2  0
 15 17  1  0
  9 18  1  0
 18 19  1  0
 19 20  1  0
 20 21  1  0
 21 22  1  0
 22 23  1  0
 23 24  1  0
 23 25  1  0
 25 26  1  0
 22 27  1  0
 21 28  1  0
 20 29  1  0
  8  4  1  0
 12  6  1  0
 17 10  1  0
 24 19  1  0
  1 30  1  0
  1 31  1  0
  1 32  1  0
  3 33  1  0
  3 34  1  0
  4 35  1  0
  5 36  1  0
  5 37  1  0
 12 38  1  0
 13 39  1  0
 14 40  1  0
 19 41  1  0
 20 42  1  0
 21 43  1  0
 22 44  1  0
 23 45  1  0
 25 46  1  0
 25 47  1  0
 26 48  1  0
 27 49  1  0
 28 50  1  0
 29 51  1  0
M  END
>  <Name>  (605) 
Apiumetin

>  <PubChem ID>  (605) 
14033997

>  <CDB ID>  (605) 
CDB0605

>  <Smiles>  (605) 
CC(=C)C1CC2=C(O1)C(=C3C(=C2)C=CC(=O)O3)OC4C(C(C(C(O4)CO)O)O)O

>  <Chemical class>  (605) 
7,8-Dioxygenated Coumarins

>  <Natural source>  (605) 
Apium graveolens, Apium leptophyllum

>  <Molecular Formula>  (605) 
C20H22O9

>  <InChI-Key>  (605) 
VPAPSBNFWBXZLU-UHFFFAOYSA-N

>  <Total Molweight>  (605) 
406.386

>  <cLogP>  (605) 
0.5882

>  <cLogS>  (605) 
-3.038

>  <H-Acceptors>  (605) 
9

>  <H-Donors>  (605) 
4

>  <Rotatable Bonds>  (605) 
4

>  <Polar Surface Area>  (605) 
134.91

$$$$
CDB0606
     RDKit          3D

 33 35  0  0  0  0  0  0  0  0999 V2000
   -4.0537    1.0579    0.1679 C   0  0  0  0  0  0  0  0  0  0  0  0
   -3.1336   -0.1533   -0.0155 C   0  0  0  0  0  0  0  0  0  0  0  0
   -3.7130   -1.3665    0.7230 C   0  0  0  0  0  0  0  0  0  0  0  0
   -1.7012    0.1672    0.4856 C   0  0  0  0  0  0  0  0  0  0  0  0
   -0.9704    1.2484   -0.3323 C   0  0  0  0  0  0  0  0  0  0  0  0
    0.4197    0.7491   -0.2050 C   0  0  0  0  0  0  0  0  0  0  0  0
    0.3937   -0.5661    0.2407 C   0  0  0  0  0  0  0  0  0  0  0  0
   -0.8729   -1.0312    0.4824 O   0  0  0  0  0  0  0  0  0  0  0  0
    1.5546   -1.2956    0.3872 C   0  0  0  0  0  0  0  0  0  0  0  0
    2.7596   -0.6642    0.0789 C   0  0  0  0  0  0  0  0  0  0  0  0
    2.8052    0.6633   -0.3732 C   0  0  0  0  0  0  0  0  0  0  0  0
    1.6137    1.3820   -0.5234 C   0  0  0  0  0  0  0  0  0  0  0  0
    4.0979    1.2534   -0.6828 C   0  0  0  0  0  0  0  0  0  0  0  0
    5.2092    0.5275   -0.5280 C   0  0  0  0  0  0  0  0  0  0  0  0
    5.1865   -0.8656   -0.0505 C   0  0  0  0  0  0  0  0  0  0  0  0
    6.2263   -1.4997    0.0830 O   0  0  0  0  0  0  0  0  0  0  0  0
    3.9450   -1.4146    0.2369 O   0  0  0  0  0  0  0  0  0  0  0  0
    1.5184   -2.5850    0.8256 O   0  0  0  0  0  0  0  0  0  0  0  0
   -3.1052   -0.4509   -1.4183 O   0  0  0  0  0  0  0  0  0  0  0  0
   -4.1193    1.3584    1.2186 H   0  0  0  0  0  0  0  0  0  0  0  0
   -3.7042    1.9145   -0.4189 H   0  0  0  0  0  0  0  0  0  0  0  0
   -5.0654    0.8363   -0.1914 H   0  0  0  0  0  0  0  0  0  0  0  0
   -3.7178   -1.2117    1.8069 H   0  0  0  0  0  0  0  0  0  0  0  0
   -3.1440   -2.2758    0.5000 H   0  0  0  0  0  0  0  0  0  0  0  0
   -4.7417   -1.5662    0.4010 H   0  0  0  0  0  0  0  0  0  0  0  0
   -1.7590    0.4855    1.5377 H   0  0  0  0  0  0  0  0  0  0  0  0
   -1.2615    1.2592   -1.3870 H   0  0  0  0  0  0  0  0  0  0  0  0
   -1.1109    2.2425    0.1011 H   0  0  0  0  0  0  0  0  0  0  0  0
    1.6113    2.4044   -0.8890 H   0  0  0  0  0  0  0  0  0  0  0  0
    4.1414    2.2775   -1.0372 H   0  0  0  0  0  0  0  0  0  0  0  0
    6.1896    0.9321   -0.7486 H   0  0  0  0  0  0  0  0  0  0  0  0
    2.4361   -2.9111    0.8349 H   0  0  0  0  0  0  0  0  0  0  0  0
   -3.9346   -0.9016   -1.6521 H   0  0  0  0  0  0  0  0  0  0  0  0
  1  2  1  0
  2  3  1  0
  2  4  1  0
  4  5  1  0
  5  6  1  0
  6  7  2  0
  7  8  1  0
  7  9  1  0
  9 10  2  0
 10 11  1  0
 11 12  2  0
 11 13  1  0
 13 14  2  0
 14 15  1  0
 15 16  2  0
 15 17  1  0
  9 18  1  0
  2 19  1  0
  8  4  1  0
 12  6  1  0
 17 10  1  0
  1 20  1  0
  1 21  1  0
  1 22  1  0
  3 23  1  0
  3 24  1  0
  3 25  1  0
  4 26  1  0
  5 27  1  0
  5 28  1  0
 12 29  1  0
 13 30  1  0
 14 31  1  0
 18 32  1  0
 19 33  1  0
M  END
>  <Name>  (606) 
Qianhucoumarin G

>  <PubChem ID>  (606) 
102004675

>  <CDB ID>  (606) 
CDB0606

>  <Smiles>  (606) 
CC(C)(C1CC2=C(O1)C(=C3C(=C2)C=CC(=O)O3)O)O

>  <Chemical class>  (606) 
7,8-Dioxygenated Coumarins

>  <Natural source>  (606) 
Peucedanum praeruptorum

>  <Molecular Formula>  (606) 
C14H14O5

>  <InChI-Key>  (606) 
FVFQELHSZVFPDZ-SECBINFHSA-N

>  <Total Molweight>  (606) 
262.26

>  <cLogP>  (606) 
1.5154

>  <cLogS>  (606) 
-2.799

>  <H-Acceptors>  (606) 
5

>  <H-Donors>  (606) 
2

>  <Rotatable Bonds>  (606) 
1

>  <Polar Surface Area>  (606) 
75.99

$$$$
CDB0607
     RDKit          3D

 33 35  0  0  0  0  0  0  0  0999 V2000
   -4.0537    1.0579    0.1679 C   0  0  0  0  0  0  0  0  0  0  0  0
   -3.1336   -0.1533   -0.0155 C   0  0  0  0  0  0  0  0  0  0  0  0
   -3.7130   -1.3665    0.7230 C   0  0  0  0  0  0  0  0  0  0  0  0
   -1.7012    0.1672    0.4856 C   0  0  0  0  0  0  0  0  0  0  0  0
   -0.9704    1.2484   -0.3323 C   0  0  0  0  0  0  0  0  0  0  0  0
    0.4197    0.7491   -0.2050 C   0  0  0  0  0  0  0  0  0  0  0  0
    0.3937   -0.5661    0.2407 C   0  0  0  0  0  0  0  0  0  0  0  0
   -0.8729   -1.0312    0.4824 O   0  0  0  0  0  0  0  0  0  0  0  0
    1.5546   -1.2956    0.3872 C   0  0  0  0  0  0  0  0  0  0  0  0
    2.7596   -0.6642    0.0789 C   0  0  0  0  0  0  0  0  0  0  0  0
    2.8052    0.6633   -0.3732 C   0  0  0  0  0  0  0  0  0  0  0  0
    1.6137    1.3820   -0.5234 C   0  0  0  0  0  0  0  0  0  0  0  0
    4.0979    1.2534   -0.6828 C   0  0  0  0  0  0  0  0  0  0  0  0
    5.2092    0.5275   -0.5280 C   0  0  0  0  0  0  0  0  0  0  0  0
    5.1865   -0.8656   -0.0505 C   0  0  0  0  0  0  0  0  0  0  0  0
    6.2263   -1.4997    0.0830 O   0  0  0  0  0  0  0  0  0  0  0  0
    3.9450   -1.4146    0.2369 O   0  0  0  0  0  0  0  0  0  0  0  0
    1.5184   -2.5850    0.8256 O   0  0  0  0  0  0  0  0  0  0  0  0
   -3.1052   -0.4509   -1.4183 O   0  0  0  0  0  0  0  0  0  0  0  0
   -4.1193    1.3584    1.2186 H   0  0  0  0  0  0  0  0  0  0  0  0
   -3.7042    1.9145   -0.4189 H   0  0  0  0  0  0  0  0  0  0  0  0
   -5.0654    0.8363   -0.1914 H   0  0  0  0  0  0  0  0  0  0  0  0
   -3.7178   -1.2117    1.8069 H   0  0  0  0  0  0  0  0  0  0  0  0
   -3.1440   -2.2758    0.5000 H   0  0  0  0  0  0  0  0  0  0  0  0
   -4.7417   -1.5662    0.4010 H   0  0  0  0  0  0  0  0  0  0  0  0
   -1.7590    0.4855    1.5377 H   0  0  0  0  0  0  0  0  0  0  0  0
   -1.2615    1.2592   -1.3870 H   0  0  0  0  0  0  0  0  0  0  0  0
   -1.1109    2.2425    0.1011 H   0  0  0  0  0  0  0  0  0  0  0  0
    1.6113    2.4044   -0.8890 H   0  0  0  0  0  0  0  0  0  0  0  0
    4.1414    2.2775   -1.0372 H   0  0  0  0  0  0  0  0  0  0  0  0
    6.1896    0.9321   -0.7486 H   0  0  0  0  0  0  0  0  0  0  0  0
    2.4361   -2.9111    0.8349 H   0  0  0  0  0  0  0  0  0  0  0  0
   -3.9346   -0.9016   -1.6521 H   0  0  0  0  0  0  0  0  0  0  0  0
  1  2  1  0
  2  3  1  0
  2  4  1  0
  4  5  1  0
  5  6  1  0
  6  7  2  0
  7  8  1  0
  7  9  1  0
  9 10  2  0
 10 11  1  0
 11 12  2  0
 11 13  1  0
 13 14  2  0
 14 15  1  0
 15 16  2  0
 15 17  1  0
  9 18  1  0
  2 19  1  0
  8  4  1  0
 12  6  1  0
 17 10  1  0
  1 20  1  0
  1 21  1  0
  1 22  1  0
  3 23  1  0
  3 24  1  0
  3 25  1  0
  4 26  1  0
  5 27  1  0
  5 28  1  0
 12 29  1  0
 13 30  1  0
 14 31  1  0
 18 32  1  0
 19 33  1  0
M  END
>  <Name>  (607) 
Rutaretin

>  <PubChem ID>  (607) 
44146779

>  <CDB ID>  (607) 
CDB0607

>  <Smiles>  (607) 
CC(C)(C1CC2=C(O1)C(=C3C(=C2)C=CC(=O)O3)O)O

>  <Chemical class>  (607) 
7,8-Dioxygenated Coumarins

>  <Natural source>  (607) 
Ruta graveolens

>  <Molecular Formula>  (607) 
C14H14O5

>  <InChI-Key>  (607) 
FVFQELHSZVFPDZ-SECBINFHSA-N

>  <Total Molweight>  (607) 
262.26

>  <cLogP>  (607) 
1.5154

>  <cLogS>  (607) 
-2.799

>  <H-Acceptors>  (607) 
5

>  <H-Donors>  (607) 
2

>  <Rotatable Bonds>  (607) 
1

>  <Polar Surface Area>  (607) 
75.99

$$$$
CDB0608
     RDKit          3D

 54 57  0  0  0  0  0  0  0  0999 V2000
    2.1261    2.2677    1.9571 C   0  0  0  0  0  0  0  0  0  0  0  0
    2.8971    1.9147    0.6781 C   0  0  0  0  0  0  0  0  0  0  0  0
    3.9631    2.9855    0.4228 C   0  0  0  0  0  0  0  0  0  0  0  0
    1.9381    1.7700   -0.5405 C   0  0  0  0  0  0  0  0  0  0  0  0
    2.6005    1.2473   -1.8283 C   0  0  0  0  0  0  0  0  0  0  0  0
    2.0423   -0.1241   -1.8848 C   0  0  0  0  0  0  0  0  0  0  0  0
    1.0335   -0.2654   -0.9410 C   0  0  0  0  0  0  0  0  0  0  0  0
    0.8458    0.8674   -0.1962 O   0  0  0  0  0  0  0  0  0  0  0  0
    0.3369   -1.4537   -0.7968 C   0  0  0  0  0  0  0  0  0  0  0  0
    0.7107   -2.5080   -1.6420 C   0  0  0  0  0  0  0  0  0  0  0  0
    1.7248   -2.3802   -2.6041 C   0  0  0  0  0  0  0  0  0  0  0  0
    2.3996   -1.1645   -2.7305 C   0  0  0  0  0  0  0  0  0  0  0  0
    2.0500   -3.5215   -3.4450 C   0  0  0  0  0  0  0  0  0  0  0  0
    1.3754   -4.6657   -3.2995 C   0  0  0  0  0  0  0  0  0  0  0  0
    0.2946   -4.8272   -2.3132 C   0  0  0  0  0  0  0  0  0  0  0  0
   -0.3185   -5.8840   -2.2212 O   0  0  0  0  0  0  0  0  0  0  0  0
    0.0073   -3.7310   -1.5148 O   0  0  0  0  0  0  0  0  0  0  0  0
   -0.6316   -1.7219    0.1246 O   0  0  0  0  0  0  0  0  0  0  0  0
   -1.5153   -0.6481    0.4767 C   0  0  0  0  0  0  0  0  0  0  0  0
   -2.9004   -1.3001    0.6643 C   0  0  0  0  0  0  0  0  0  0  0  0
   -3.9021   -0.2492    1.1324 C   0  0  0  0  0  0  0  0  0  0  0  0
   -3.3931    0.4567    2.3893 C   0  0  0  0  0  0  0  0  0  0  0  0
   -1.9664    0.9969    2.1802 C   0  0  0  0  0  0  0  0  0  0  0  0
   -1.0956   -0.0368    1.6994 O   0  0  0  0  0  0  0  0  0  0  0  0
   -1.9061    2.2679    1.3104 C   0  0  0  0  0  0  0  0  0  0  0  0
   -2.5676    3.3714    1.9187 O   0  0  0  0  0  0  0  0  0  0  0  0
   -4.3089    1.4985    2.7490 O   0  0  0  0  0  0  0  0  0  0  0  0
   -5.1687   -0.8611    1.4265 O   0  0  0  0  0  0  0  0  0  0  0  0
   -3.3902   -1.8803   -0.5561 O   0  0  0  0  0  0  0  0  0  0  0  0
    3.5864    0.6810    0.9170 O   0  0  0  0  0  0  0  0  0  0  0  0
    1.5683    3.2028    1.8439 H   0  0  0  0  0  0  0  0  0  0  0  0
    2.8110    2.3744    2.8064 H   0  0  0  0  0  0  0  0  0  0  0  0
    1.4252    1.4734    2.2355 H   0  0  0  0  0  0  0  0  0  0  0  0
    4.6205    3.0931    1.2937 H   0  0  0  0  0  0  0  0  0  0  0  0
    4.6175    2.7172   -0.4124 H   0  0  0  0  0  0  0  0  0  0  0  0
    3.5106    3.9599    0.2118 H   0  0  0  0  0  0  0  0  0  0  0  0
    1.4839    2.7493   -0.7410 H   0  0  0  0  0  0  0  0  0  0  0  0
    2.2599    1.8222   -2.6963 H   0  0  0  0  0  0  0  0  0  0  0  0
    3.6921    1.2511   -1.7998 H   0  0  0  0  0  0  0  0  0  0  0  0
    3.1907   -1.0292   -3.4623 H   0  0  0  0  0  0  0  0  0  0  0  0
    2.8421   -3.4291   -4.1804 H   0  0  0  0  0  0  0  0  0  0  0  0
    1.5909   -5.5364   -3.9071 H   0  0  0  0  0  0  0  0  0  0  0  0
   -1.5753    0.0823   -0.3403 H   0  0  0  0  0  0  0  0  0  0  0  0
   -2.8481   -2.1158    1.3966 H   0  0  0  0  0  0  0  0  0  0  0  0
   -4.1085    0.4749    0.3352 H   0  0  0  0  0  0  0  0  0  0  0  0
   -3.3858   -0.2613    3.2194 H   0  0  0  0  0  0  0  0  0  0  0  0
   -1.5896    1.2862    3.1697 H   0  0  0  0  0  0  0  0  0  0  0  0
   -0.8653    2.5566    1.1383 H   0  0  0  0  0  0  0  0  0  0  0  0
   -2.3535    2.1076    0.3251 H   0  0  0  0  0  0  0  0  0  0  0  0
   -3.4013    3.0250    2.3072 H   0  0  0  0  0  0  0  0  0  0  0  0
   -5.1885    1.0636    2.7577 H   0  0  0  0  0  0  0  0  0  0  0  0
   -5.3537   -1.4455    0.6625 H   0  0  0  0  0  0  0  0  0  0  0  0
   -2.7179   -2.5380   -0.8273 H   0  0  0  0  0  0  0  0  0  0  0  0
    2.9067    0.0139    1.1312 H   0  0  0  0  0  0  0  0  0  0  0  0
  1  2  1  0
  2  3  1  0
  2  4  1  0
  4  5  1  0
  5  6  1  0
  6  7  2  0
  7  8  1  0
  7  9  1  0
  9 10  2  0
 10 11  1  0
 11 12  2  0
 11 13  1  0
 13 14  2  0
 14 15  1  0
 15 16  2  0
 15 17  1  0
  9 18  1  0
 18 19  1  0
 19 20  1  0
 20 21  1  0
 21 22  1  0
 22 23  1  0
 23 24  1  0
 23 25  1  0
 25 26  1  0
 22 27  1  0
 21 28  1  0
 20 29  1  0
  2 30  1  0
  8  4  1  0
 12  6  1  0
 17 10  1  0
 24 19  1  0
  1 31  1  0
  1 32  1  0
  1 33  1  0
  3 34  1  0
  3 35  1  0
  3 36  1  0
  4 37  1  0
  5 38  1  0
  5 39  1  0
 12 40  1  0
 13 41  1  0
 14 42  1  0
 19 43  1  0
 20 44  1  0
 21 45  1  0
 22 46  1  0
 23 47  1  0
 25 48  1  0
 25 49  1  0
 26 50  1  0
 27 51  1  0
 28 52  1  0
 29 53  1  0
 30 54  1  0
M  END
>  <Name>  (608) 
Rutarin (Campesenin)

>  <PubChem ID>  (608) 
442149

>  <CDB ID>  (608) 
CDB0608

>  <Smiles>  (608) 
CC(C)(C1CC2=C(O1)C(=C3C(=C2)C=CC(=O)O3)OC4C(C(C(C(O4)CO)O)O)O)O

>  <Chemical class>  (608) 
7,8-Dioxygenated Coumarins

>  <Natural source>  (608) 
Ruta graveolens, Seseli campestre

>  <Molecular Formula>  (608) 
C20H24O10

>  <InChI-Key>  (608) 
JWWFVRMFYKPZNE-UHFFFAOYSA-N

>  <Total Molweight>  (608) 
424.401

>  <cLogP>  (608) 
-0.4739

>  <cLogS>  (608) 
-2.685

>  <H-Acceptors>  (608) 
10

>  <H-Donors>  (608) 
5

>  <Rotatable Bonds>  (608) 
4

>  <Polar Surface Area>  (608) 
155.14

$$$$
CDB0609
     RDKit          3D

 54 57  0  0  0  0  0  0  0  0999 V2000
   -0.9375    2.7063   -1.3000 C   0  0  0  0  0  0  0  0  0  0  0  0
   -0.4539    1.2880   -1.6433 C   0  0  0  0  0  0  0  0  0  0  0  0
    0.1627    1.3208   -3.0555 C   0  0  0  0  0  0  0  0  0  0  0  0
    0.5725    0.7784   -0.5899 C   0  0  0  0  0  0  0  0  0  0  0  0
    1.8004    1.6825   -0.3650 C   0  0  0  0  0  0  0  0  0  0  0  0
    2.8146    0.6413   -0.0727 C   0  0  0  0  0  0  0  0  0  0  0  0
    2.3246   -0.5993   -0.4599 C   0  0  0  0  0  0  0  0  0  0  0  0
    1.0491   -0.5476   -0.9584 O   0  0  0  0  0  0  0  0  0  0  0  0
    3.0932   -1.7391   -0.3533 C   0  0  0  0  0  0  0  0  0  0  0  0
    4.3797   -1.6063    0.1681 C   0  0  0  0  0  0  0  0  0  0  0  0
    4.8915   -0.3623    0.5668 C   0  0  0  0  0  0  0  0  0  0  0  0
    4.0974    0.7836    0.4390 C   0  0  0  0  0  0  0  0  0  0  0  0
    6.2440   -0.2998    1.0976 C   0  0  0  0  0  0  0  0  0  0  0  0
    6.9672   -1.4194    1.1961 C   0  0  0  0  0  0  0  0  0  0  0  0
    6.4510   -2.7361    0.7847 C   0  0  0  0  0  0  0  0  0  0  0  0
    7.1427   -3.7418    0.8885 O   0  0  0  0  0  0  0  0  0  0  0  0
    5.1591   -2.7778    0.2797 O   0  0  0  0  0  0  0  0  0  0  0  0
    2.6018   -2.9488   -0.7413 O   0  0  0  0  0  0  0  0  0  0  0  0
   -1.6094    0.4349   -1.8132 O   0  0  0  0  0  0  0  0  0  0  0  0
   -2.1684   -0.1949   -0.6551 C   0  0  0  0  0  0  0  0  0  0  0  0
   -3.3667   -1.0284   -1.1665 C   0  0  0  0  0  0  0  0  0  0  0  0
   -4.1169   -1.6754    0.0036 C   0  0  0  0  0  0  0  0  0  0  0  0
   -4.4617   -0.6190    1.0702 C   0  0  0  0  0  0  0  0  0  0  0  0
   -3.1994    0.1846    1.4475 C   0  0  0  0  0  0  0  0  0  0  0  0
   -2.6139    0.7860    0.2789 O   0  0  0  0  0  0  0  0  0  0  0  0
   -3.5081    1.3017    2.4495 C   0  0  0  0  0  0  0  0  0  0  0  0
   -3.8722    0.7608    3.7146 O   0  0  0  0  0  0  0  0  0  0  0  0
   -5.4870    0.2544    0.5691 O   0  0  0  0  0  0  0  0  0  0  0  0
   -3.3229   -2.7136    0.5820 O   0  0  0  0  0  0  0  0  0  0  0  0
   -4.2700   -0.1697   -1.8958 O   0  0  0  0  0  0  0  0  0  0  0  0
   -0.1442    3.4496   -1.4322 H   0  0  0  0  0  0  0  0  0  0  0  0
   -1.7857    2.9934   -1.9319 H   0  0  0  0  0  0  0  0  0  0  0  0
   -1.2785    2.7762   -0.2626 H   0  0  0  0  0  0  0  0  0  0  0  0
    0.4865    0.3211   -3.3668 H   0  0  0  0  0  0  0  0  0  0  0  0
   -0.5827    1.6403   -3.7943 H   0  0  0  0  0  0  0  0  0  0  0  0
    1.0163    1.9997   -3.1302 H   0  0  0  0  0  0  0  0  0  0  0  0
    0.0706    0.6565    0.3803 H   0  0  0  0  0  0  0  0  0  0  0  0
    1.6413    2.3720    0.4691 H   0  0  0  0  0  0  0  0  0  0  0  0
    2.0989    2.2439   -1.2534 H   0  0  0  0  0  0  0  0  0  0  0  0
    4.4695    1.7633    0.7238 H   0  0  0  0  0  0  0  0  0  0  0  0
    6.6484    0.6576    1.4078 H   0  0  0  0  0  0  0  0  0  0  0  0
    7.9777   -1.4129    1.5867 H   0  0  0  0  0  0  0  0  0  0  0  0
    3.3013   -3.6081   -0.5820 H   0  0  0  0  0  0  0  0  0  0  0  0
   -1.4332   -0.8634   -0.1944 H   0  0  0  0  0  0  0  0  0  0  0  0
   -3.0087   -1.7888   -1.8700 H   0  0  0  0  0  0  0  0  0  0  0  0
   -5.0512   -2.1200   -0.3612 H   0  0  0  0  0  0  0  0  0  0  0  0
   -4.8600   -1.1109    1.9647 H   0  0  0  0  0  0  0  0  0  0  0  0
   -2.4611   -0.4894    1.9024 H   0  0  0  0  0  0  0  0  0  0  0  0
   -4.3110    1.9533    2.0881 H   0  0  0  0  0  0  0  0  0  0  0  0
   -2.6238    1.9334    2.5902 H   0  0  0  0  0  0  0  0  0  0  0  0
   -4.2300    1.4964    4.2412 H   0  0  0  0  0  0  0  0  0  0  0  0
   -5.2393    0.4833   -0.3526 H   0  0  0  0  0  0  0  0  0  0  0  0
   -3.3847   -3.4886   -0.0057 H   0  0  0  0  0  0  0  0  0  0  0  0
   -3.6799    0.3980   -2.4359 H   0  0  0  0  0  0  0  0  0  0  0  0
  1  2  1  0
  2  3  1  0
  2  4  1  0
  4  5  1  0
  5  6  1  0
  6  7  2  0
  7  8  1  0
  7  9  1  0
  9 10  2  0
 10 11  1  0
 11 12  2  0
 11 13  1  0
 13 14  2  0
 14 15  1  0
 15 16  2  0
 15 17  1  0
  9 18  1  0
  2 19  1  0
 19 20  1  0
 20 21  1  0
 21 22  1  0
 22 23  1  0
 23 24  1  0
 24 25  1  0
 24 26  1  0
 26 27  1  0
 23 28  1  0
 22 29  1  0
 21 30  1  0
  8  4  1  0
 12  6  1  0
 17 10  1  0
 25 20  1  0
  1 31  1  0
  1 32  1  0
  1 33  1  0
  3 34  1  0
  3 35  1  0
  3 36  1  0
  4 37  1  0
  5 38  1  0
  5 39  1  0
 12 40  1  0
 13 41  1  0
 14 42  1  0
 18 43  1  0
 20 44  1  0
 21 45  1  0
 22 46  1  0
 23 47  1  0
 24 48  1  0
 26 49  1  0
 26 50  1  0
 27 51  1  0
 28 52  1  0
 29 53  1  0
 30 54  1  0
M  END
>  <Name>  (609) 
Isorutarin

>  <PubChem ID>  (609) 
185756

>  <CDB ID>  (609) 
CDB0609

>  <Smiles>  (609) 
CC(C)(C1CC2=C(O1)C(=C3C(=C2)C=CC(=O)O3)O)OC4C(C(C(C(O4)CO)O)O)O

>  <Chemical class>  (609) 
7,8-Dioxygenated Coumarins

>  <Natural source>  (609) 
Ruta graveolens, Apium leptophyllum

>  <Molecular Formula>  (609) 
C20H24O10

>  <InChI-Key>  (609) 
QZUDEXAHKXCIDG-UHFFFAOYSA-N

>  <Total Molweight>  (609) 
424.401

>  <cLogP>  (609) 
-0.3217

>  <cLogS>  (609) 
-2.499

>  <H-Acceptors>  (609) 
10

>  <H-Donors>  (609) 
5

>  <Rotatable Bonds>  (609) 
4

>  <Polar Surface Area>  (609) 
155.14

$$$$
CDB0610
     RDKit          3D

 71 75  0  0  0  0  0  0  0  0999 V2000
    2.2995   -2.7772    1.2096 C   0  0  0  0  0  0  0  0  0  0  0  0
    2.1254   -1.2798    0.8652 C   0  0  0  0  0  0  0  0  0  0  0  0
    1.8020   -0.5598    2.1856 C   0  0  0  0  0  0  0  0  0  0  0  0
    3.4479   -0.7868    0.2051 C   0  0  0  0  0  0  0  0  0  0  0  0
    3.4977    0.6872   -0.2325 C   0  0  0  0  0  0  0  0  0  0  0  0
    4.9523    0.9322   -0.0739 C   0  0  0  0  0  0  0  0  0  0  0  0
    5.4946   -0.0651    0.7257 C   0  0  0  0  0  0  0  0  0  0  0  0
    4.5766   -1.0124    1.0987 O   0  0  0  0  0  0  0  0  0  0  0  0
    6.8219   -0.0440    1.0965 C   0  0  0  0  0  0  0  0  0  0  0  0
    7.6080    1.0084    0.6274 C   0  0  0  0  0  0  0  0  0  0  0  0
    7.0786    2.0227   -0.1852 C   0  0  0  0  0  0  0  0  0  0  0  0
    5.7242    1.9886   -0.5370 C   0  0  0  0  0  0  0  0  0  0  0  0
    7.9579    3.0909   -0.6332 C   0  0  0  0  0  0  0  0  0  0  0  0
    9.2431    3.0857   -0.2668 C   0  0  0  0  0  0  0  0  0  0  0  0
    9.8210    2.0320    0.5847 C   0  0  0  0  0  0  0  0  0  0  0  0
   11.0042    2.0598    0.9014 O   0  0  0  0  0  0  0  0  0  0  0  0
    8.9682    1.0209    1.0044 O   0  0  0  0  0  0  0  0  0  0  0  0
    7.3395   -1.0233    1.8889 O   0  0  0  0  0  0  0  0  0  0  0  0
    1.0420   -1.2774   -0.0884 O   0  0  0  0  0  0  0  0  0  0  0  0
    0.2691   -0.0839   -0.2413 C   0  0  0  0  0  0  0  0  0  0  0  0
   -0.2263    0.0273   -1.6963 C   0  0  0  0  0  0  0  0  0  0  0  0
   -1.1170   -1.1682   -2.0736 C   0  0  0  0  0  0  0  0  0  0  0  0
   -1.8563   -1.7553   -0.8581 C   0  0  0  0  0  0  0  0  0  0  0  0
   -2.0478   -0.6788    0.2245 C   0  0  0  0  0  0  0  0  0  0  0  0
   -0.8078   -0.1176    0.6948 O   0  0  0  0  0  0  0  0  0  0  0  0
   -2.8062   -1.2093    1.4507 C   0  0  0  0  0  0  0  0  0  0  0  0
   -4.0617   -1.8263    1.1246 O   0  0  0  0  0  0  0  0  0  0  0  0
   -5.0669   -0.9753    0.7946 C   0  0  0  0  0  0  0  0  0  0  0  0
   -4.9649    0.2319    0.6824 O   0  0  0  0  0  0  0  0  0  0  0  0
   -6.2819   -1.7935    0.5777 C   0  0  0  0  0  0  0  0  0  0  0  0
   -7.4820   -1.3524    0.1698 C   0  0  0  0  0  0  0  0  0  0  0  0
   -7.8533    0.0211   -0.1755 C   0  0  0  0  0  0  0  0  0  0  0  0
   -8.7800    0.7031    0.6216 C   0  0  0  0  0  0  0  0  0  0  0  0
   -9.1714    2.0017    0.2902 C   0  0  0  0  0  0  0  0  0  0  0  0
   -8.6401    2.6141   -0.8384 C   0  0  0  0  0  0  0  0  0  0  0  0
   -7.7242    1.9483   -1.6466 C   0  0  0  0  0  0  0  0  0  0  0  0
   -7.3345    0.6476   -1.3156 C   0  0  0  0  0  0  0  0  0  0  0  0
   -9.0488    3.8830   -1.1240 O   0  0  0  0  0  0  0  0  0  0  0  0
   -1.1135   -2.8809   -0.3587 O   0  0  0  0  0  0  0  0  0  0  0  0
   -0.3273   -2.1773   -2.7314 O   0  0  0  0  0  0  0  0  0  0  0  0
    0.8635    0.1420   -2.6198 O   0  0  0  0  0  0  0  0  0  0  0  0
    1.3696   -3.1918    1.6170 H   0  0  0  0  0  0  0  0  0  0  0  0
    2.5260   -3.3607    0.3094 H   0  0  0  0  0  0  0  0  0  0  0  0
    3.0949   -2.9471    1.9425 H   0  0  0  0  0  0  0  0  0  0  0  0
    0.8793   -0.9540    2.6268 H   0  0  0  0  0  0  0  0  0  0  0  0
    2.6060   -0.6859    2.9187 H   0  0  0  0  0  0  0  0  0  0  0  0
    1.6469    0.5140    2.0514 H   0  0  0  0  0  0  0  0  0  0  0  0
    3.6288   -1.4050   -0.6889 H   0  0  0  0  0  0  0  0  0  0  0  0
    2.9592    1.3572    0.4419 H   0  0  0  0  0  0  0  0  0  0  0  0
    3.1512    0.8214   -1.2598 H   0  0  0  0  0  0  0  0  0  0  0  0
    5.2784    2.7664   -1.1500 H   0  0  0  0  0  0  0  0  0  0  0  0
    7.5569    3.8789   -1.2613 H   0  0  0  0  0  0  0  0  0  0  0  0
    9.9285    3.8636   -0.5811 H   0  0  0  0  0  0  0  0  0  0  0  0
    8.2823   -0.8174    2.0227 H   0  0  0  0  0  0  0  0  0  0  0  0
    0.8774    0.7955   -0.0246 H   0  0  0  0  0  0  0  0  0  0  0  0
   -0.8225    0.9447   -1.7758 H   0  0  0  0  0  0  0  0  0  0  0  0
   -1.8465   -0.8188   -2.8137 H   0  0  0  0  0  0  0  0  0  0  0  0
   -2.8209   -2.1535   -1.1905 H   0  0  0  0  0  0  0  0  0  0  0  0
   -2.6196    0.1456   -0.2173 H   0  0  0  0  0  0  0  0  0  0  0  0
   -2.1998   -1.9637    1.9661 H   0  0  0  0  0  0  0  0  0  0  0  0
   -2.9594   -0.4106    2.1884 H   0  0  0  0  0  0  0  0  0  0  0  0
   -6.1664   -2.8508    0.7985 H   0  0  0  0  0  0  0  0  0  0  0  0
   -8.2991   -2.0669    0.0871 H   0  0  0  0  0  0  0  0  0  0  0  0
   -9.1993    0.2339    1.5081 H   0  0  0  0  0  0  0  0  0  0  0  0
   -9.8854    2.5338    0.9120 H   0  0  0  0  0  0  0  0  0  0  0  0
   -7.3049    2.4190   -2.5296 H   0  0  0  0  0  0  0  0  0  0  0  0
   -6.6193    0.1302   -1.9496 H   0  0  0  0  0  0  0  0  0  0  0  0
   -8.5668    4.1930   -1.9079 H   0  0  0  0  0  0  0  0  0  0  0  0
   -0.2736   -2.5281    0.0092 H   0  0  0  0  0  0  0  0  0  0  0  0
   -0.4026   -2.9814   -2.1733 H   0  0  0  0  0  0  0  0  0  0  0  0
    0.9754   -0.7652   -2.9818 H   0  0  0  0  0  0  0  0  0  0  0  0
  1  2  1  0
  2  3  1  0
  2  4  1  0
  4  5  1  0
  5  6  1  0
  6  7  2  0
  7  8  1  0
  7  9  1  0
  9 10  2  0
 10 11  1  0
 11 12  2  0
 11 13  1  0
 13 14  2  0
 14 15  1  0
 15 16  2  0
 15 17  1  0
  9 18  1  0
  2 19  1  0
 19 20  1  0
 20 21  1  0
 21 22  1  0
 22 23  1  0
 23 24  1  0
 24 25  1  0
 24 26  1  0
 26 27  1  0
 27 28  1  0
 28 29  2  0
 28 30  1  0
 30 31  2  3
 31 32  1  0
 32 33  1  0
 33 34  2  0
 34 35  1  0
 35 36  2  0
 36 37  1  0
 35 38  1  0
 23 39  1  0
 22 40  1  0
 21 41  1  0
  8  4  1  0
 12  6  1  0
 17 10  1  0
 25 20  1  0
 37 32  2  0
  1 42  1  0
  1 43  1  0
  1 44  1  0
  3 45  1  0
  3 46  1  0
  3 47  1  0
  4 48  1  0
  5 49  1  0
  5 50  1  0
 12 51  1  0
 13 52  1  0
 14 53  1  0
 18 54  1  0
 20 55  1  0
 21 56  1  0
 22 57  1  0
 23 58  1  0
 24 59  1  0
 26 60  1  0
 26 61  1  0
 30 62  1  0
 31 63  1  0
 33 64  1  0
 34 65  1  0
 36 66  1  0
 37 67  1  0
 38 68  1  0
 39 69  1  0
 40 70  1  0
 41 71  1  0
M  END
>  <Name>  (610) 
Apiumoside

>  <PubChem ID>  (610) 
131752524

>  <CDB ID>  (610) 
CDB0610

>  <Smiles>  (610) 
CC(C)(C1CC2=C(O1)C(=C3C(=C2)C=CC(=O)O3)O)OC4C(C(C(C(O4)COC(=O)C=CC5=CC=C(C=C5)O)O)O)O

>  <Chemical class>  (610) 
7,8-Dioxygenated Coumarins

>  <Natural source>  (610) 
Apium graveo/ens

>  <Molecular Formula>  (610) 
C29H30O12

>  <InChI-Key>  (610) 
PUPQENMYBCRTJC-UHFFFAOYSA-N

>  <Total Molweight>  (610) 
570.545

>  <cLogP>  (610) 
1.5902

>  <cLogS>  (610) 
-4.153

>  <H-Acceptors>  (610) 
12

>  <H-Donors>  (610) 
5

>  <Rotatable Bonds>  (610) 
8

>  <Polar Surface Area>  (610) 
181.44

$$$$
CDB0611
     RDKit          3D

 21 23  0  0  0  0  0  0  0  0999 V2000
   -2.0142   -0.9333    1.1020 C   0  0  0  0  0  0  0  0  0  0  0  0
   -3.1548   -0.3423    0.7338 C   0  0  0  0  0  0  0  0  0  0  0  0
   -3.1951    0.7619   -0.2393 C   0  0  0  0  0  0  0  0  0  0  0  0
   -4.2574    1.2830   -0.5562 O   0  0  0  0  0  0  0  0  0  0  0  0
   -1.9815    1.1749   -0.7710 O   0  0  0  0  0  0  0  0  0  0  0  0
   -0.7650    0.5609   -0.3928 C   0  0  0  0  0  0  0  0  0  0  0  0
    0.4006    1.0516   -0.9867 C   0  0  0  0  0  0  0  0  0  0  0  0
    1.5921    0.4375   -0.6050 C   0  0  0  0  0  0  0  0  0  0  0  0
    1.6595   -0.6087    0.3131 C   0  0  0  0  0  0  0  0  0  0  0  0
    3.0367   -0.9410    0.4196 C   0  0  0  0  0  0  0  0  0  0  0  0
    3.7092   -0.0898   -0.4265 C   0  0  0  0  0  0  0  0  0  0  0  0
    2.8427    0.7482   -1.0511 O   0  0  0  0  0  0  0  0  0  0  0  0
    0.4652   -1.0821    0.8956 C   0  0  0  0  0  0  0  0  0  0  0  0
   -0.7526   -0.4845    0.5321 C   0  0  0  0  0  0  0  0  0  0  0  0
    0.3683    2.0787   -1.8926 O   0  0  0  0  0  0  0  0  0  0  0  0
   -2.0120   -1.7453    1.8214 H   0  0  0  0  0  0  0  0  0  0  0  0
   -4.1127   -0.6491    1.1365 H   0  0  0  0  0  0  0  0  0  0  0  0
    3.4848   -1.7064    1.0369 H   0  0  0  0  0  0  0  0  0  0  0  0
    4.7506    0.0422   -0.6856 H   0  0  0  0  0  0  0  0  0  0  0  0
    0.4999   -1.8970    1.6131 H   0  0  0  0  0  0  0  0  0  0  0  0
   -0.5644    2.3405   -1.9974 H   0  0  0  0  0  0  0  0  0  0  0  0
  1  2  2  0
  2  3  1  0
  3  4  2  0
  3  5  1  0
  5  6  1  0
  6  7  1  0
  7  8  2  0
  8  9  1  0
  9 10  1  0
 10 11  2  0
 11 12  1  0
  9 13  2  0
 13 14  1  0
  7 15  1  0
 14  1  1  0
 14  6  2  0
 12  8  1  0
  1 16  1  0
  2 17  1  0
 10 18  1  0
 11 19  1  0
 13 20  1  0
 15 21  1  0
M  END
>  <Name>  (611) 
Xanthotoxol

>  <PubChem ID>  (611) 
65090

>  <CDB ID>  (611) 
CDB0611

>  <Smiles>  (611) 
C1=CC(=O)OC2=C(C3=C(C=CO3)C=C21)O

>  <Chemical class>  (611) 
7,8-Dioxygenated Coumarins

>  <Natural source>  (611) 
Angelica archangelica

>  <Molecular Formula>  (611) 
C11H6O4

>  <InChI-Key>  (611) 
JWVYQQGERKEAHW-UHFFFAOYSA-N

>  <Total Molweight>  (611) 
202.165

>  <cLogP>  (611) 
1.6033

>  <cLogS>  (611) 
-3.233

>  <H-Acceptors>  (611) 
4

>  <H-Donors>  (611) 
1

>  <Rotatable Bonds>  (611) 
0

>  <Polar Surface Area>  (611) 
59.67

$$$$
CDB0612
     RDKit          3D

 24 26  0  0  0  0  0  0  0  0999 V2000
   -2.8155   -1.7434    0.2514 C   0  0  0  0  0  0  0  0  0  0  0  0
   -1.4369   -1.8443   -0.0762 O   0  0  0  0  0  0  0  0  0  0  0  0
   -0.6941   -0.6803    0.0083 C   0  0  0  0  0  0  0  0  0  0  0  0
    0.6717   -0.7762   -0.3154 C   0  0  0  0  0  0  0  0  0  0  0  0
    1.5454    0.3134   -0.2759 C   0  0  0  0  0  0  0  0  0  0  0  0
    1.0678    1.5753    0.1005 C   0  0  0  0  0  0  0  0  0  0  0  0
   -0.2933    1.7182    0.4333 C   0  0  0  0  0  0  0  0  0  0  0  0
   -1.1289    0.6008    0.3793 C   0  0  0  0  0  0  0  0  0  0  0  0
   -2.3953    0.9706    0.7397 O   0  0  0  0  0  0  0  0  0  0  0  0
   -2.3741    2.2971    1.0192 C   0  0  0  0  0  0  0  0  0  0  0  0
   -1.1098    2.8053    0.8474 C   0  0  0  0  0  0  0  0  0  0  0  0
    2.9441    0.1176   -0.6283 C   0  0  0  0  0  0  0  0  0  0  0  0
    3.3758   -1.0956   -0.9841 C   0  0  0  0  0  0  0  0  0  0  0  0
    2.4857   -2.2669   -1.0375 C   0  0  0  0  0  0  0  0  0  0  0  0
    2.9185   -3.3644   -1.3687 O   0  0  0  0  0  0  0  0  0  0  0  0
    1.1599   -2.0541   -0.6975 O   0  0  0  0  0  0  0  0  0  0  0  0
   -2.9539   -1.4431    1.2949 H   0  0  0  0  0  0  0  0  0  0  0  0
   -3.2570   -2.7383    0.1362 H   0  0  0  0  0  0  0  0  0  0  0  0
   -3.3382   -1.0720   -0.4372 H   0  0  0  0  0  0  0  0  0  0  0  0
    1.7276    2.4375    0.1388 H   0  0  0  0  0  0  0  0  0  0  0  0
   -3.3197    2.7261    1.3210 H   0  0  0  0  0  0  0  0  0  0  0  0
   -0.8109    3.8324    1.0011 H   0  0  0  0  0  0  0  0  0  0  0  0
    3.6223    0.9634   -0.5976 H   0  0  0  0  0  0  0  0  0  0  0  0
    4.4090   -1.2789   -1.2527 H   0  0  0  0  0  0  0  0  0  0  0  0
  1  2  1  0
  2  3  1  0
  3  4  1  0
  4  5  2  0
  5  6  1  0
  6  7  2  0
  7  8  1  0
  8  9  1  0
  9 10  1  0
 10 11  2  0
  5 12  1  0
 12 13  2  0
 13 14  1  0
 14 15  2  0
 14 16  1  0
  8  3  2  0
 16  4  1  0
 11  7  1  0
  1 17  1  0
  1 18  1  0
  1 19  1  0
  6 20  1  0
 10 21  1  0
 11 22  1  0
 12 23  1  0
 13 24  1  0
M  END
>  <Name>  (612) 
Xanthotoxin

>  <PubChem ID>  (612) 
4114

>  <CDB ID>  (612) 
CDB0612

>  <Smiles>  (612) 
COC1=C2C(=CC3=C1OC=C3)C=CC(=O)O2

>  <Chemical class>  (612) 
7,8-Dioxygenated Coumarins

>  <Natural source>  (612) 
Xanthoxylum senegalense, Ammi majus

>  <Molecular Formula>  (612) 
C12H8O4

>  <InChI-Key>  (612) 
QXKHYNVANLEOEG-UHFFFAOYSA-N

>  <Total Molweight>  (612) 
216.192

>  <cLogP>  (612) 
1.879

>  <cLogS>  (612) 
-3.547

>  <H-Acceptors>  (612) 
4

>  <H-Donors>  (612) 
0

>  <Rotatable Bonds>  (612) 
1

>  <Polar Surface Area>  (612) 
48.67

$$$$
CDB0613
     RDKit          3D

 34 36  0  0  0  0  0  0  0  0999 V2000
    5.0814   -0.9100    0.2355 C   0  0  0  0  0  0  0  0  0  0  0  0
    3.7982   -0.3028    0.7405 C   0  0  0  0  0  0  0  0  0  0  0  0
    2.6126   -0.8829    0.4657 C   0  0  0  0  0  0  0  0  0  0  0  0
    1.2346   -0.4234    0.8503 C   0  0  0  0  0  0  0  0  0  0  0  0
    0.4297   -0.4929   -0.3266 O   0  0  0  0  0  0  0  0  0  0  0  0
   -0.9006   -0.1378   -0.1950 C   0  0  0  0  0  0  0  0  0  0  0  0
   -1.6896   -0.1986   -1.3579 C   0  0  0  0  0  0  0  0  0  0  0  0
   -3.0473    0.1309   -1.3787 C   0  0  0  0  0  0  0  0  0  0  0  0
   -3.6815    0.5444   -0.2001 C   0  0  0  0  0  0  0  0  0  0  0  0
   -2.9301    0.6184    0.9889 C   0  0  0  0  0  0  0  0  0  0  0  0
   -1.5761    0.2795    0.9611 C   0  0  0  0  0  0  0  0  0  0  0  0
   -1.0521    0.4227    2.2160 O   0  0  0  0  0  0  0  0  0  0  0  0
   -2.0480    0.8454    3.0331 C   0  0  0  0  0  0  0  0  0  0  0  0
   -3.2210    0.9819    2.3317 C   0  0  0  0  0  0  0  0  0  0  0  0
   -3.7830    0.0383   -2.6313 C   0  0  0  0  0  0  0  0  0  0  0  0
   -3.1563   -0.3602   -3.7418 C   0  0  0  0  0  0  0  0  0  0  0  0
   -1.7283   -0.7177   -3.7585 C   0  0  0  0  0  0  0  0  0  0  0  0
   -1.1889   -1.0817   -4.7967 O   0  0  0  0  0  0  0  0  0  0  0  0
   -1.0506   -0.6193   -2.5544 O   0  0  0  0  0  0  0  0  0  0  0  0
    3.9846    0.9546    1.5434 C   0  0  0  0  0  0  0  0  0  0  0  0
    4.9099   -1.8180   -0.3521 H   0  0  0  0  0  0  0  0  0  0  0  0
    5.7317   -1.1758    1.0754 H   0  0  0  0  0  0  0  0  0  0  0  0
    5.6118   -0.1964   -0.4036 H   0  0  0  0  0  0  0  0  0  0  0  0
    2.6107   -1.8029   -0.1187 H   0  0  0  0  0  0  0  0  0  0  0  0
    0.8484   -1.1126    1.6096 H   0  0  0  0  0  0  0  0  0  0  0  0
    1.2433    0.6025    1.2258 H   0  0  0  0  0  0  0  0  0  0  0  0
   -4.7359    0.8058   -0.1912 H   0  0  0  0  0  0  0  0  0  0  0  0
   -1.7702    1.0013    4.0665 H   0  0  0  0  0  0  0  0  0  0  0  0
   -4.1702    1.3034    2.7363 H   0  0  0  0  0  0  0  0  0  0  0  0
   -4.8366    0.2955   -2.6480 H   0  0  0  0  0  0  0  0  0  0  0  0
   -3.6712   -0.4411   -4.6913 H   0  0  0  0  0  0  0  0  0  0  0  0
    3.0611    1.3259    1.9925 H   0  0  0  0  0  0  0  0  0  0  0  0
    4.3920    1.7486    0.9091 H   0  0  0  0  0  0  0  0  0  0  0  0
    4.6875    0.7751    2.3641 H   0  0  0  0  0  0  0  0  0  0  0  0
  1  2  1  0
  2  3  2  3
  3  4  1  0
  4  5  1  0
  5  6  1  0
  6  7  1  0
  7  8  2  0
  8  9  1  0
  9 10  2  0
 10 11  1  0
 11 12  1  0
 12 13  1  0
 13 14  2  0
  8 15  1  0
 15 16  2  0
 16 17  1  0
 17 18  2  0
 17 19  1  0
  2 20  1  0
 11  6  2  0
 19  7  1  0
 14 10  1  0
  1 21  1  0
  1 22  1  0
  1 23  1  0
  3 24  1  0
  4 25  1  0
  4 26  1  0
  9 27  1  0
 13 28  1  0
 14 29  1  0
 15 30  1  0
 16 31  1  0
 20 32  1  0
 20 33  1  0
 20 34  1  0
M  END
>  <Name>  (613) 
Imperatorin

>  <PubChem ID>  (613) 
10212

>  <CDB ID>  (613) 
CDB0613

>  <Smiles>  (613) 
CC(=CCOC1=C2C(=CC3=C1OC=C3)C=CC(=O)O2)C

>  <Chemical class>  (613) 
7,8-Dioxygenated Coumarins

>  <Natural source>  (613) 
Imperatoria ostruthium, Aegle marmelos, Ammi majus, Aegle marmelos

>  <Molecular Formula>  (613) 
C16H14O4

>  <InChI-Key>  (613) 
OLOOJGVNMBJLLR-UHFFFAOYSA-N

>  <Total Molweight>  (613) 
270.283

>  <cLogP>  (613) 
3.5483

>  <cLogS>  (613) 
-4.283

>  <H-Acceptors>  (613) 
4

>  <H-Donors>  (613) 
0

>  <Rotatable Bonds>  (613) 
3

>  <Polar Surface Area>  (613) 
48.67

$$$$
CDB0614
     RDKit          3D

 35 37  0  0  0  0  0  0  0  0999 V2000
    4.6992   -0.0385    0.6592 C   0  0  0  0  0  0  0  0  0  0  0  0
    3.5197   -0.5087    0.2142 C   0  0  0  0  0  0  0  0  0  0  0  0
    2.7426   -1.5095    1.0265 C   0  0  0  0  0  0  0  0  0  0  0  0
    2.9473   -0.0668   -1.1204 C   0  0  1  0  0  0  0  0  0  0  0  0
    2.8446   -1.2075   -1.9738 O   0  0  0  0  0  0  0  0  0  0  0  0
    1.5913    0.6649   -1.0398 C   0  0  0  0  0  0  0  0  0  0  0  0
    0.5634   -0.2839   -0.7298 O   0  0  0  0  0  0  0  0  0  0  0  0
   -0.6785    0.2355   -0.4159 C   0  0  0  0  0  0  0  0  0  0  0  0
   -1.1550    1.5327   -0.6503 C   0  0  0  0  0  0  0  0  0  0  0  0
   -0.4759    2.5666   -1.2320 O   0  0  0  0  0  0  0  0  0  0  0  0
   -1.3066    3.6381   -1.2628 C   0  0  0  0  0  0  0  0  0  0  0  0
   -2.5237    3.3202   -0.7105 C   0  0  0  0  0  0  0  0  0  0  0  0
   -2.4408    1.9584   -0.3130 C   0  0  0  0  0  0  0  0  0  0  0  0
   -3.3283    1.0483    0.2944 C   0  0  0  0  0  0  0  0  0  0  0  0
   -2.8959   -0.2620    0.5376 C   0  0  0  0  0  0  0  0  0  0  0  0
   -1.5999   -0.6422    0.1809 C   0  0  0  0  0  0  0  0  0  0  0  0
   -1.1609   -1.9690    0.4299 O   0  0  0  0  0  0  0  0  0  0  0  0
   -1.9785   -2.9161    1.0249 C   0  0  0  0  0  0  0  0  0  0  0  0
   -1.6070   -4.0613    1.2515 O   0  0  0  0  0  0  0  0  0  0  0  0
   -3.3389   -2.4819    1.3825 C   0  0  0  0  0  0  0  0  0  0  0  0
   -3.7775   -1.2400    1.1580 C   0  0  0  0  0  0  0  0  0  0  0  0
    5.1186   -0.3609    1.6077 H   0  0  0  0  0  0  0  0  0  0  0  0
    5.2860    0.6698    0.0821 H   0  0  0  0  0  0  0  0  0  0  0  0
    3.3136   -1.8626    1.8924 H   0  0  0  0  0  0  0  0  0  0  0  0
    1.8191   -1.0645    1.4080 H   0  0  0  0  0  0  0  0  0  0  0  0
    2.4908   -2.3895    0.4269 H   0  0  0  0  0  0  0  0  0  0  0  0
    3.6566    0.6163   -1.6036 H   0  0  0  0  0  0  0  0  0  0  0  0
    2.0023   -1.6390   -1.7367 H   0  0  0  0  0  0  0  0  0  0  0  0
    1.3764    1.0878   -2.0279 H   0  0  0  0  0  0  0  0  0  0  0  0
    1.6436    1.4579   -0.2843 H   0  0  0  0  0  0  0  0  0  0  0  0
   -0.8946    4.5365   -1.7016 H   0  0  0  0  0  0  0  0  0  0  0  0
   -3.3693    3.9858   -0.6100 H   0  0  0  0  0  0  0  0  0  0  0  0
   -4.3319    1.3676    0.5614 H   0  0  0  0  0  0  0  0  0  0  0  0
   -3.9665   -3.2356    1.8424 H   0  0  0  0  0  0  0  0  0  0  0  0
   -4.7854   -0.9470    1.4320 H   0  0  0  0  0  0  0  0  0  0  0  0
  1  2  2  0
  2  3  1  0
  2  4  1  0
  4  5  1  0
  4  6  1  0
  6  7  1  0
  7  8  1  0
  8  9  2  0
  9 10  1  0
 10 11  1  0
 11 12  2  0
 12 13  1  0
 13 14  2  0
 14 15  1  0
 15 16  2  0
 16 17  1  0
 17 18  1  0
 18 19  2  0
 18 20  1  0
 20 21  2  0
 16  8  1  0
 13  9  1  0
 21 15  1  0
  1 22  1  0
  1 23  1  0
  3 24  1  0
  3 25  1  0
  3 26  1  0
  4 27  1  6
  5 28  1  0
  6 29  1  0
  6 30  1  0
 11 31  1  0
 12 32  1  0
 14 33  1  0
 20 34  1  0
 21 35  1  0
M  END
>  <Name>  (614) 
Isogosferol

>  <PubChem ID>  (614) 
148619

>  <CDB ID>  (614) 
CDB0614

>  <Smiles>  (614) 
C=C(C)[C@@H](O)COC1=C2OC=CC2=CC2=C1OC(=O)C=C2

>  <Chemical class>  (614) 
7,8-Dioxygenated Coumarins

>  <Natural source>  (614) 
Prangos lophoptera, Heracleum granatense

>  <Molecular Formula>  (614) 
C16H14O5

>  <InChI-Key>  (614) 
RTUPRHIHXSAWDP-LBPRGKRZSA-N

>  <Total Molweight>  (614) 
286.282

>  <cLogP>  (614) 
2.5932

>  <cLogS>  (614) 
-4.051

>  <H-Acceptors>  (614) 
5

>  <H-Donors>  (614) 
1

>  <Rotatable Bonds>  (614) 
4

>  <Polar Surface Area>  (614) 
68.9

$$$$
CDB0615
     RDKit          3D

 35 38  0  0  0  0  0  0  0  0999 V2000
    2.3191   -2.0042   -0.5701 C   0  0  0  0  0  0  0  0  0  0  0  0
    3.3077   -0.8821   -0.5065 C   0  0  0  0  0  0  0  0  0  0  0  0
    4.5703   -1.1492    0.2516 C   0  0  0  0  0  0  0  0  0  0  0  0
    3.5125   -0.2052   -1.7574 O   0  0  0  0  0  0  0  0  0  0  0  0
    2.8794    0.5597   -0.7198 C   0  0  1  0  0  0  0  0  0  0  0  0
    1.4666    0.9625   -0.9974 C   0  0  0  0  0  0  0  0  0  0  0  0
    0.7296    0.8245    0.2177 O   0  0  0  0  0  0  0  0  0  0  0  0
   -0.6431    0.7811    0.0750 C   0  0  0  0  0  0  0  0  0  0  0  0
   -1.4087    1.3946   -0.9249 C   0  0  0  0  0  0  0  0  0  0  0  0
   -0.9435    2.1375   -1.9728 O   0  0  0  0  0  0  0  0  0  0  0  0
   -2.0174    2.5377   -2.6984 C   0  0  0  0  0  0  0  0  0  0  0  0
   -3.1809    2.0711   -2.1355 C   0  0  0  0  0  0  0  0  0  0  0  0
   -2.8013    1.3337   -0.9817 C   0  0  0  0  0  0  0  0  0  0  0  0
   -3.4976    0.6272    0.0189 C   0  0  0  0  0  0  0  0  0  0  0  0
   -2.7699    0.0139    1.0482 C   0  0  0  0  0  0  0  0  0  0  0  0
   -1.3758    0.1041    1.0633 C   0  0  0  0  0  0  0  0  0  0  0  0
   -0.6391   -0.5205    2.1026 O   0  0  0  0  0  0  0  0  0  0  0  0
   -1.2575   -1.2289    3.1199 C   0  0  0  0  0  0  0  0  0  0  0  0
   -0.6321   -1.7797    4.0182 O   0  0  0  0  0  0  0  0  0  0  0  0
   -2.7274   -1.2980    3.0767 C   0  0  0  0  0  0  0  0  0  0  0  0
   -3.4447   -0.7190    2.1095 C   0  0  0  0  0  0  0  0  0  0  0  0
    1.8272   -2.1275    0.4001 H   0  0  0  0  0  0  0  0  0  0  0  0
    1.5448   -1.8416   -1.3259 H   0  0  0  0  0  0  0  0  0  0  0  0
    2.8219   -2.9447   -0.8189 H   0  0  0  0  0  0  0  0  0  0  0  0
    4.3443   -1.3495    1.3038 H   0  0  0  0  0  0  0  0  0  0  0  0
    5.0897   -2.0204   -0.1607 H   0  0  0  0  0  0  0  0  0  0  0  0
    5.2597   -0.2991    0.2111 H   0  0  0  0  0  0  0  0  0  0  0  0
    3.4450    1.3449   -0.2352 H   0  0  0  0  0  0  0  0  0  0  0  0
    1.0380    0.3463   -1.7970 H   0  0  0  0  0  0  0  0  0  0  0  0
    1.4631    2.0127   -1.3090 H   0  0  0  0  0  0  0  0  0  0  0  0
   -1.7946    3.1386   -3.5695 H   0  0  0  0  0  0  0  0  0  0  0  0
   -4.1808    2.2453   -2.5069 H   0  0  0  0  0  0  0  0  0  0  0  0
   -4.5820    0.5719   -0.0128 H   0  0  0  0  0  0  0  0  0  0  0  0
   -3.1951   -1.8515    3.8819 H   0  0  0  0  0  0  0  0  0  0  0  0
   -4.5273   -0.7863    2.1021 H   0  0  0  0  0  0  0  0  0  0  0  0
  1  2  1  0
  2  3  1  0
  2  4  1  0
  4  5  1  0
  5  6  1  0
  6  7  1  0
  7  8  1  0
  8  9  2  0
  9 10  1  0
 10 11  1  0
 11 12  2  0
 12 13  1  0
 13 14  2  0
 14 15  1  0
 15 16  2  0
 16 17  1  0
 17 18  1  0
 18 19  2  0
 18 20  1  0
 20 21  2  0
  5  2  1  0
 16  8  1  0
 13  9  1  0
 21 15  1  0
  1 22  1  0
  1 23  1  0
  1 24  1  0
  3 25  1  0
  3 26  1  0
  3 27  1  0
  5 28  1  1
  6 29  1  0
  6 30  1  0
 11 31  1  0
 12 32  1  0
 14 33  1  0
 20 34  1  0
 21 35  1  0
M  END
>  <Name>  (615) 
Prangenin

>  <PubChem ID>  (615) 
182251

>  <CDB ID>  (615) 
CDB0615

>  <Smiles>  (615) 
CC1(C)O[C@H]1COC1=C2OC=CC2=CC2=C1OC(=O)C=C2

>  <Chemical class>  (615) 
7,8-Dioxygenated Coumarins

>  <Natural source>  (615) 
Prangos pabularia, Phebalium drummondii

>  <Molecular Formula>  (615) 
C16H14O5

>  <InChI-Key>  (615) 
CTJZWFCPUDPLME-NSHDSACASA-N

>  <Total Molweight>  (615) 
286.282

>  <cLogP>  (615) 
2.1175

>  <cLogS>  (615) 
-4.179

>  <H-Acceptors>  (615) 
5

>  <H-Donors>  (615) 
0

>  <Rotatable Bonds>  (615) 
3

>  <Polar Surface Area>  (615) 
61.2

$$$$
CDB0616
     RDKit          3D

 38 40  0  0  0  0  0  0  0  0999 V2000
   -3.2326    0.4962   -0.8331 C   0  0  0  0  0  0  0  0  0  0  0  0
   -3.0874   -0.7899   -0.0175 C   0  0  0  0  0  0  0  0  0  0  0  0
   -4.4589   -1.4609    0.1298 C   0  0  0  0  0  0  0  0  0  0  0  0
   -2.2709   -1.7127   -0.7567 O   0  0  0  0  0  0  0  0  0  0  0  0
   -2.4526   -0.5492    1.3821 C   0  0  1  0  0  0  0  0  0  0  0  0
   -2.2075   -1.8247    2.0023 O   0  0  0  0  0  0  0  0  0  0  0  0
   -1.1297    0.2404    1.3752 C   0  0  0  0  0  0  0  0  0  0  0  0
   -0.2406   -0.3191    0.4036 O   0  0  0  0  0  0  0  0  0  0  0  0
    1.0134    0.2564    0.3012 C   0  0  0  0  0  0  0  0  0  0  0  0
    1.5213    1.3629    0.9968 C   0  0  0  0  0  0  0  0  0  0  0  0
    0.8710    2.1182    1.9326 O   0  0  0  0  0  0  0  0  0  0  0  0
    1.7275    3.0822    2.3518 C   0  0  0  0  0  0  0  0  0  0  0  0
    2.9316    2.9732    1.6997 C   0  0  0  0  0  0  0  0  0  0  0  0
    2.8114    1.8654    0.8177 C   0  0  0  0  0  0  0  0  0  0  0  0
    3.6686    1.2430   -0.1108 C   0  0  0  0  0  0  0  0  0  0  0  0
    3.1994    0.1382   -0.8329 C   0  0  0  0  0  0  0  0  0  0  0  0
    1.8999   -0.3282   -0.6205 C   0  0  0  0  0  0  0  0  0  0  0  0
    1.4221   -1.4434   -1.3580 O   0  0  0  0  0  0  0  0  0  0  0  0
    2.2094   -2.1019   -2.2900 C   0  0  0  0  0  0  0  0  0  0  0  0
    1.8079   -3.0639   -2.9332 O   0  0  0  0  0  0  0  0  0  0  0  0
    3.5744   -1.5862   -2.4828 C   0  0  0  0  0  0  0  0  0  0  0  0
    4.0468   -0.5362   -1.8052 C   0  0  0  0  0  0  0  0  0  0  0  0
   -3.8210    1.2470   -0.2961 H   0  0  0  0  0  0  0  0  0  0  0  0
   -3.7237    0.2935   -1.7921 H   0  0  0  0  0  0  0  0  0  0  0  0
   -2.2579    0.9272   -1.0843 H   0  0  0  0  0  0  0  0  0  0  0  0
   -5.1555   -0.8313    0.6928 H   0  0  0  0  0  0  0  0  0  0  0  0
   -4.3771   -2.4290    0.6363 H   0  0  0  0  0  0  0  0  0  0  0  0
   -4.8981   -1.6691   -0.8529 H   0  0  0  0  0  0  0  0  0  0  0  0
   -1.3702   -1.3333   -0.8130 H   0  0  0  0  0  0  0  0  0  0  0  0
   -3.1600   -0.0165    2.0283 H   0  0  0  0  0  0  0  0  0  0  0  0
   -1.8875   -2.4063    1.2823 H   0  0  0  0  0  0  0  0  0  0  0  0
   -1.3410    1.2858    1.1247 H   0  0  0  0  0  0  0  0  0  0  0  0
   -0.6742    0.1690    2.3700 H   0  0  0  0  0  0  0  0  0  0  0  0
    1.3409    3.7567    3.1035 H   0  0  0  0  0  0  0  0  0  0  0  0
    3.7914    3.6126    1.8412 H   0  0  0  0  0  0  0  0  0  0  0  0
    4.6754    1.6241   -0.2577 H   0  0  0  0  0  0  0  0  0  0  0  0
    4.1763   -2.1132   -3.2133 H   0  0  0  0  0  0  0  0  0  0  0  0
    5.0575   -0.1772   -1.9678 H   0  0  0  0  0  0  0  0  0  0  0  0
  1  2  1  0
  2  3  1  0
  2  4  1  0
  2  5  1  0
  5  6  1  0
  5  7  1  0
  7  8  1  0
  8  9  1  0
  9 10  2  0
 10 11  1  0
 11 12  1  0
 12 13  2  0
 13 14  1  0
 14 15  2  0
 15 16  1  0
 16 17  2  0
 17 18  1  0
 18 19  1  0
 19 20  2  0
 19 21  1  0
 21 22  2  0
 17  9  1  0
 14 10  1  0
 22 16  1  0
  1 23  1  0
  1 24  1  0
  1 25  1  0
  3 26  1  0
  3 27  1  0
  3 28  1  0
  4 29  1  0
  5 30  1  1
  6 31  1  0
  7 32  1  0
  7 33  1  0
 12 34  1  0
 13 35  1  0
 15 36  1  0
 21 37  1  0
 22 38  1  0
M  END
>  <Name>  (616) 
( + )-Heraclenol

>  <PubChem ID>  (616) 
40429858

>  <CDB ID>  (616) 
CDB0616

>  <Smiles>  (616) 
CC(C)(O)[C@@H](O)COC1=C2OC=CC2=CC2=C1OC(=O)C=C2

>  <Chemical class>  (616) 
7,8-Dioxygenated Coumarins

>  <Natural source>  (616) 
Heracleum candicans

>  <Molecular Formula>  (616) 
C16H16O6

>  <InChI-Key>  (616) 
FOINLJRVEBYARJ-NSHDSACASA-N

>  <Total Molweight>  (616) 
304.297

>  <cLogP>  (616) 
1.5311

>  <cLogS>  (616) 
-3.698

>  <H-Acceptors>  (616) 
6

>  <H-Donors>  (616) 
2

>  <Rotatable Bonds>  (616) 
4

>  <Polar Surface Area>  (616) 
89.13

$$$$
CDB0617
     RDKit          3D

 73 79  0  0  0  0  0  0  0  0999 V2000
   -1.4070   -0.0637    2.9987 C   0  0  0  0  0  0  0  0  0  0  0  0
   -0.4138   -0.1818    1.8458 C   0  0  0  0  0  0  0  0  0  0  0  0
   -0.8724    0.3578    0.4903 C   0  0  0  0  0  0  0  0  0  0  0  0
   -0.1248   -0.4209   -0.4594 O   0  0  0  0  0  0  0  0  0  0  0  0
    0.2401   -1.6398    0.2107 C   0  0  0  0  0  0  0  0  0  0  0  0
   -0.2007   -1.5747    1.5756 O   0  0  0  0  0  0  0  0  0  0  0  0
   -0.5091   -2.7661   -0.4399 C   0  0  0  0  0  0  0  0  0  0  0  0
    0.0596   -3.5998   -1.3175 C   0  0  0  0  0  0  0  0  0  0  0  0
    1.4583   -3.3605   -1.6518 C   0  0  0  0  0  0  0  0  0  0  0  0
    2.2023   -2.4525   -0.8831 C   0  0  0  0  0  0  0  0  0  0  0  0
    1.6644   -1.7930    0.1940 O   0  0  0  0  0  0  0  0  0  0  0  0
    3.5553   -2.2126   -1.1606 C   0  0  0  0  0  0  0  0  0  0  0  0
    4.1191   -2.9158   -2.2260 C   0  0  0  0  0  0  0  0  0  0  0  0
    3.4132   -3.8198   -3.0128 C   0  0  0  0  0  0  0  0  0  0  0  0
    2.0556   -4.0526   -2.7213 C   0  0  0  0  0  0  0  0  0  0  0  0
    4.3414   -4.3038   -3.9727 C   0  0  0  0  0  0  0  0  0  0  0  0
    5.5355   -3.6713   -3.7130 C   0  0  0  0  0  0  0  0  0  0  0  0
    5.4102   -2.8262   -2.6574 O   0  0  0  0  0  0  0  0  0  0  0  0
    4.3034   -1.3657   -0.3783 O   0  0  0  0  0  0  0  0  0  0  0  0
    4.1997   -0.0214   -0.8826 C   0  0  0  0  0  0  0  0  0  0  0  0
    4.9894    0.8771    0.0757 C   0  0  0  0  0  0  0  0  0  0  0  0
    5.0248    2.3752   -0.3136 C   0  0  0  0  0  0  0  0  0  0  0  0
    3.6332    3.0114   -0.3893 C   0  0  0  0  0  0  0  0  0  0  0  0
    5.7869    2.6127   -1.6167 C   0  0  0  0  0  0  0  0  0  0  0  0
    5.7399    3.0682    0.7256 O   0  0  0  0  0  0  0  0  0  0  0  0
    4.4227    0.7757    1.4018 O   0  0  0  0  0  0  0  0  0  0  0  0
   -2.3669    0.2030    0.1698 C   0  0  0  0  0  0  0  0  0  0  0  0
   -3.1034    1.1845    0.8957 O   0  0  0  0  0  0  0  0  0  0  0  0
   -4.4806    1.0632    0.8787 C   0  0  0  0  0  0  0  0  0  0  0  0
   -5.1964    1.8465    1.8007 C   0  0  0  0  0  0  0  0  0  0  0  0
   -6.5904    1.8382    1.8901 C   0  0  0  0  0  0  0  0  0  0  0  0
   -7.3380    1.0245    1.0287 C   0  0  0  0  0  0  0  0  0  0  0  0
   -6.6616    0.2295    0.0825 C   0  0  0  0  0  0  0  0  0  0  0  0
   -5.2673    0.2703    0.0315 C   0  0  0  0  0  0  0  0  0  0  0  0
   -4.8281   -0.5659   -0.9568 O   0  0  0  0  0  0  0  0  0  0  0  0
   -5.9180   -1.1359   -1.5276 C   0  0  0  0  0  0  0  0  0  0  0  0
   -7.0681   -0.6843   -0.9271 C   0  0  0  0  0  0  0  0  0  0  0  0
   -7.2437    2.6799    2.8818 C   0  0  0  0  0  0  0  0  0  0  0  0
   -6.5072    3.4438    3.6937 C   0  0  0  0  0  0  0  0  0  0  0  0
   -5.0368    3.4744    3.6315 C   0  0  0  0  0  0  0  0  0  0  0  0
   -4.3927    4.1832    4.3955 O   0  0  0  0  0  0  0  0  0  0  0  0
   -4.4393    2.6678    2.6767 O   0  0  0  0  0  0  0  0  0  0  0  0
    0.9177    0.4585    2.2729 C   0  0  0  0  0  0  0  0  0  0  0  0
   -0.9842   -0.4918    3.9156 H   0  0  0  0  0  0  0  0  0  0  0  0
   -2.3216   -0.6340    2.8053 H   0  0  0  0  0  0  0  0  0  0  0  0
   -1.6705    0.9792    3.2006 H   0  0  0  0  0  0  0  0  0  0  0  0
   -0.5993    1.4135    0.3745 H   0  0  0  0  0  0  0  0  0  0  0  0
   -1.5550   -2.8837   -0.1829 H   0  0  0  0  0  0  0  0  0  0  0  0
   -0.4888   -4.4048   -1.7911 H   0  0  0  0  0  0  0  0  0  0  0  0
    1.4859   -4.7592   -3.3178 H   0  0  0  0  0  0  0  0  0  0  0  0
    4.1629   -5.0268   -4.7557 H   0  0  0  0  0  0  0  0  0  0  0  0
    6.5179   -3.7112   -4.1630 H   0  0  0  0  0  0  0  0  0  0  0  0
    4.6181    0.0266   -1.8938 H   0  0  0  0  0  0  0  0  0  0  0  0
    3.1456    0.2789   -0.8983 H   0  0  0  0  0  0  0  0  0  0  0  0
    6.0141    0.4982    0.1768 H   0  0  0  0  0  0  0  0  0  0  0  0
    3.0344    2.5936   -1.2042 H   0  0  0  0  0  0  0  0  0  0  0  0
    3.0837    2.8802    0.5495 H   0  0  0  0  0  0  0  0  0  0  0  0
    3.7122    4.0936   -0.5467 H   0  0  0  0  0  0  0  0  0  0  0  0
    6.7926    2.1806   -1.5629 H   0  0  0  0  0  0  0  0  0  0  0  0
    5.2701    2.1844   -2.4807 H   0  0  0  0  0  0  0  0  0  0  0  0
    5.9227    3.6854   -1.7975 H   0  0  0  0  0  0  0  0  0  0  0  0
    5.3948    2.6904    1.5613 H   0  0  0  0  0  0  0  0  0  0  0  0
    4.2744   -0.1809    1.5471 H   0  0  0  0  0  0  0  0  0  0  0  0
   -2.5084    0.3624   -0.9061 H   0  0  0  0  0  0  0  0  0  0  0  0
   -2.7020   -0.8099    0.4218 H   0  0  0  0  0  0  0  0  0  0  0  0
   -8.4230    1.0017    1.0781 H   0  0  0  0  0  0  0  0  0  0  0  0
   -5.7157   -1.8271   -2.3342 H   0  0  0  0  0  0  0  0  0  0  0  0
   -8.0767   -0.9738   -1.1864 H   0  0  0  0  0  0  0  0  0  0  0  0
   -8.3262    2.6768    2.9499 H   0  0  0  0  0  0  0  0  0  0  0  0
   -6.9586    4.0823    4.4435 H   0  0  0  0  0  0  0  0  0  0  0  0
    1.3619   -0.0904    3.1108 H   0  0  0  0  0  0  0  0  0  0  0  0
    1.6567    0.4461    1.4663 H   0  0  0  0  0  0  0  0  0  0  0  0
    0.7756    1.5021    2.5732 H   0  0  0  0  0  0  0  0  0  0  0  0
  1  2  1  0
  2  3  1  0
  3  4  1  0
  4  5  1  0
  5  6  1  0
  5  7  1  0
  7  8  2  0
  8  9  1  0
  9 10  2  0
 10 11  1  0
 10 12  1  0
 12 13  2  0
 13 14  1  0
 14 15  2  0
 14 16  1  0
 16 17  2  0
 17 18  1  0
 12 19  1  0
 19 20  1  0
 20 21  1  0
 21 22  1  0
 22 23  1  0
 22 24  1  0
 22 25  1  0
 21 26  1  0
  3 27  1  0
 27 28  1  0
 28 29  1  0
 29 30  1  0
 30 31  2  0
 31 32  1  0
 32 33  2  0
 33 34  1  0
 34 35  1  0
 35 36  1  0
 36 37  2  0
 31 38  1  0
 38 39  2  0
 39 40  1  0
 40 41  2  0
 40 42  1  0
  2 43  1  0
  6  2  1  0
 11  5  1  0
 15  9  1  0
 18 13  1  0
 34 29  2  0
 42 30  1  0
 37 33  1  0
  1 44  1  0
  1 45  1  0
  1 46  1  0
  3 47  1  0
  7 48  1  0
  8 49  1  0
 15 50  1  0
 16 51  1  0
 17 52  1  0
 20 53  1  0
 20 54  1  0
 21 55  1  0
 23 56  1  0
 23 57  1  0
 23 58  1  0
 24 59  1  0
 24 60  1  0
 24 61  1  0
 25 62  1  0
 26 63  1  0
 27 64  1  0
 27 65  1  0
 32 66  1  0
 36 67  1  0
 37 68  1  0
 38 69  1  0
 39 70  1  0
 43 71  1  0
 43 72  1  0
 43 73  1  0
M  END
>  <Name>  (617) 
Rivulobirin C

>  <PubChem ID>  (617) 
10745970

>  <CDB ID>  (617) 
CDB0617

>  <Smiles>  (617) 
CC1(C(OC2(O1)C=CC3=C(O2)C(=C4C(=C3)C=CO4)OCC(C(C)(C)O)O)COC5=C6C(=CC7=C5OC=C7)C=CC(=O)O6)C

>  <Chemical class>  (617) 
7,8-Dioxygenated Coumarins

>  <Natural source>  (617) 
Pleurospermum rivulorum

>  <Molecular Formula>  (617) 
C32H30O11

>  <InChI-Key>  (617) 
RQSPCDMBNUXDLD-UHFFFAOYSA-N

>  <Total Molweight>  (617) 
590.579

>  <cLogP>  (617) 
4.7239

>  <cLogS>  (617) 
-7.347

>  <H-Acceptors>  (617) 
11

>  <H-Donors>  (617) 
2

>  <Rotatable Bonds>  (617) 
7

>  <Polar Surface Area>  (617) 
139.19

$$$$
CDB0618
     RDKit          3D

 73 79  0  0  0  0  0  0  0  0999 V2000
   -1.4070   -0.0637    2.9987 C   0  0  0  0  0  0  0  0  0  0  0  0
   -0.4138   -0.1818    1.8458 C   0  0  0  0  0  0  0  0  0  0  0  0
   -0.8724    0.3578    0.4903 C   0  0  0  0  0  0  0  0  0  0  0  0
   -0.1248   -0.4209   -0.4594 O   0  0  0  0  0  0  0  0  0  0  0  0
    0.2401   -1.6398    0.2107 C   0  0  0  0  0  0  0  0  0  0  0  0
   -0.2007   -1.5747    1.5756 O   0  0  0  0  0  0  0  0  0  0  0  0
   -0.5091   -2.7661   -0.4399 C   0  0  0  0  0  0  0  0  0  0  0  0
    0.0596   -3.5998   -1.3175 C   0  0  0  0  0  0  0  0  0  0  0  0
    1.4583   -3.3605   -1.6518 C   0  0  0  0  0  0  0  0  0  0  0  0
    2.2023   -2.4525   -0.8831 C   0  0  0  0  0  0  0  0  0  0  0  0
    1.6644   -1.7930    0.1940 O   0  0  0  0  0  0  0  0  0  0  0  0
    3.5553   -2.2126   -1.1606 C   0  0  0  0  0  0  0  0  0  0  0  0
    4.1191   -2.9158   -2.2260 C   0  0  0  0  0  0  0  0  0  0  0  0
    3.4132   -3.8198   -3.0128 C   0  0  0  0  0  0  0  0  0  0  0  0
    2.0556   -4.0526   -2.7213 C   0  0  0  0  0  0  0  0  0  0  0  0
    4.3414   -4.3038   -3.9727 C   0  0  0  0  0  0  0  0  0  0  0  0
    5.5355   -3.6713   -3.7130 C   0  0  0  0  0  0  0  0  0  0  0  0
    5.4102   -2.8262   -2.6574 O   0  0  0  0  0  0  0  0  0  0  0  0
    4.3034   -1.3657   -0.3783 O   0  0  0  0  0  0  0  0  0  0  0  0
    4.1997   -0.0214   -0.8826 C   0  0  0  0  0  0  0  0  0  0  0  0
    4.9894    0.8771    0.0757 C   0  0  0  0  0  0  0  0  0  0  0  0
    5.0248    2.3752   -0.3136 C   0  0  0  0  0  0  0  0  0  0  0  0
    3.6332    3.0114   -0.3893 C   0  0  0  0  0  0  0  0  0  0  0  0
    5.7869    2.6127   -1.6167 C   0  0  0  0  0  0  0  0  0  0  0  0
    5.7399    3.0682    0.7256 O   0  0  0  0  0  0  0  0  0  0  0  0
    4.4227    0.7757    1.4018 O   0  0  0  0  0  0  0  0  0  0  0  0
   -2.3669    0.2030    0.1698 C   0  0  0  0  0  0  0  0  0  0  0  0
   -3.1034    1.1845    0.8957 O   0  0  0  0  0  0  0  0  0  0  0  0
   -4.4806    1.0632    0.8787 C   0  0  0  0  0  0  0  0  0  0  0  0
   -5.1964    1.8465    1.8007 C   0  0  0  0  0  0  0  0  0  0  0  0
   -6.5904    1.8382    1.8901 C   0  0  0  0  0  0  0  0  0  0  0  0
   -7.3380    1.0245    1.0287 C   0  0  0  0  0  0  0  0  0  0  0  0
   -6.6616    0.2295    0.0825 C   0  0  0  0  0  0  0  0  0  0  0  0
   -5.2673    0.2703    0.0315 C   0  0  0  0  0  0  0  0  0  0  0  0
   -4.8281   -0.5659   -0.9568 O   0  0  0  0  0  0  0  0  0  0  0  0
   -5.9180   -1.1359   -1.5276 C   0  0  0  0  0  0  0  0  0  0  0  0
   -7.0681   -0.6843   -0.9271 C   0  0  0  0  0  0  0  0  0  0  0  0
   -7.2437    2.6799    2.8818 C   0  0  0  0  0  0  0  0  0  0  0  0
   -6.5072    3.4438    3.6937 C   0  0  0  0  0  0  0  0  0  0  0  0
   -5.0368    3.4744    3.6315 C   0  0  0  0  0  0  0  0  0  0  0  0
   -4.3927    4.1832    4.3955 O   0  0  0  0  0  0  0  0  0  0  0  0
   -4.4393    2.6678    2.6767 O   0  0  0  0  0  0  0  0  0  0  0  0
    0.9177    0.4585    2.2729 C   0  0  0  0  0  0  0  0  0  0  0  0
   -0.9842   -0.4918    3.9156 H   0  0  0  0  0  0  0  0  0  0  0  0
   -2.3216   -0.6340    2.8053 H   0  0  0  0  0  0  0  0  0  0  0  0
   -1.6705    0.9792    3.2006 H   0  0  0  0  0  0  0  0  0  0  0  0
   -0.5993    1.4135    0.3745 H   0  0  0  0  0  0  0  0  0  0  0  0
   -1.5550   -2.8837   -0.1829 H   0  0  0  0  0  0  0  0  0  0  0  0
   -0.4888   -4.4048   -1.7911 H   0  0  0  0  0  0  0  0  0  0  0  0
    1.4859   -4.7592   -3.3178 H   0  0  0  0  0  0  0  0  0  0  0  0
    4.1629   -5.0268   -4.7557 H   0  0  0  0  0  0  0  0  0  0  0  0
    6.5179   -3.7112   -4.1630 H   0  0  0  0  0  0  0  0  0  0  0  0
    4.6181    0.0266   -1.8938 H   0  0  0  0  0  0  0  0  0  0  0  0
    3.1456    0.2789   -0.8983 H   0  0  0  0  0  0  0  0  0  0  0  0
    6.0141    0.4982    0.1768 H   0  0  0  0  0  0  0  0  0  0  0  0
    3.0344    2.5936   -1.2042 H   0  0  0  0  0  0  0  0  0  0  0  0
    3.0837    2.8802    0.5495 H   0  0  0  0  0  0  0  0  0  0  0  0
    3.7122    4.0936   -0.5467 H   0  0  0  0  0  0  0  0  0  0  0  0
    6.7926    2.1806   -1.5629 H   0  0  0  0  0  0  0  0  0  0  0  0
    5.2701    2.1844   -2.4807 H   0  0  0  0  0  0  0  0  0  0  0  0
    5.9227    3.6854   -1.7975 H   0  0  0  0  0  0  0  0  0  0  0  0
    5.3948    2.6904    1.5613 H   0  0  0  0  0  0  0  0  0  0  0  0
    4.2744   -0.1809    1.5471 H   0  0  0  0  0  0  0  0  0  0  0  0
   -2.5084    0.3624   -0.9061 H   0  0  0  0  0  0  0  0  0  0  0  0
   -2.7020   -0.8099    0.4218 H   0  0  0  0  0  0  0  0  0  0  0  0
   -8.4230    1.0017    1.0781 H   0  0  0  0  0  0  0  0  0  0  0  0
   -5.7157   -1.8271   -2.3342 H   0  0  0  0  0  0  0  0  0  0  0  0
   -8.0767   -0.9738   -1.1864 H   0  0  0  0  0  0  0  0  0  0  0  0
   -8.3262    2.6768    2.9499 H   0  0  0  0  0  0  0  0  0  0  0  0
   -6.9586    4.0823    4.4435 H   0  0  0  0  0  0  0  0  0  0  0  0
    1.3619   -0.0904    3.1108 H   0  0  0  0  0  0  0  0  0  0  0  0
    1.6567    0.4461    1.4663 H   0  0  0  0  0  0  0  0  0  0  0  0
    0.7756    1.5021    2.5732 H   0  0  0  0  0  0  0  0  0  0  0  0
  1  2  1  0
  2  3  1  0
  3  4  1  0
  4  5  1  0
  5  6  1  0
  5  7  1  0
  7  8  2  0
  8  9  1  0
  9 10  2  0
 10 11  1  0
 10 12  1  0
 12 13  2  0
 13 14  1  0
 14 15  2  0
 14 16  1  0
 16 17  2  0
 17 18  1  0
 12 19  1  0
 19 20  1  0
 20 21  1  0
 21 22  1  0
 22 23  1  0
 22 24  1  0
 22 25  1  0
 21 26  1  0
  3 27  1  0
 27 28  1  0
 28 29  1  0
 29 30  1  0
 30 31  2  0
 31 32  1  0
 32 33  2  0
 33 34  1  0
 34 35  1  0
 35 36  1  0
 36 37  2  0
 31 38  1  0
 38 39  2  0
 39 40  1  0
 40 41  2  0
 40 42  1  0
  2 43  1  0
  6  2  1  0
 11  5  1  0
 15  9  1  0
 18 13  1  0
 34 29  2  0
 42 30  1  0
 37 33  1  0
  1 44  1  0
  1 45  1  0
  1 46  1  0
  3 47  1  0
  7 48  1  0
  8 49  1  0
 15 50  1  0
 16 51  1  0
 17 52  1  0
 20 53  1  0
 20 54  1  0
 21 55  1  0
 23 56  1  0
 23 57  1  0
 23 58  1  0
 24 59  1  0
 24 60  1  0
 24 61  1  0
 25 62  1  0
 26 63  1  0
 27 64  1  0
 27 65  1  0
 32 66  1  0
 36 67  1  0
 37 68  1  0
 38 69  1  0
 39 70  1  0
 43 71  1  0
 43 72  1  0
 43 73  1  0
M  END
>  <Name>  (618) 
Rivulobirin D

>  <PubChem ID>  (618) 
10769724

>  <CDB ID>  (618) 
CDB0618

>  <Smiles>  (618) 
CC1(C(OC2(O1)C=CC3=C(O2)C(=C4C(=C3)C=CO4)OCC(C(C)(C)O)O)COC5=C6C(=CC7=C5OC=C7)C=CC(=O)O6)C

>  <Chemical class>  (618) 
7,8-Dioxygenated Coumarins

>  <Natural source>  (618) 
Pleurospermum rivulorum

>  <Molecular Formula>  (618) 
C32H30O11

>  <InChI-Key>  (618) 
RQSPCDMBNUXDLD-UHFFFAOYSA-N

>  <Total Molweight>  (618) 
590.579

>  <cLogP>  (618) 
4.7239

>  <cLogS>  (618) 
-7.347

>  <H-Acceptors>  (618) 
11

>  <H-Donors>  (618) 
2

>  <Rotatable Bonds>  (618) 
7

>  <Polar Surface Area>  (618) 
139.19

$$$$
CDB0619
     RDKit          3D

108118  0  0  0  0  0  0  0  0999 V2000
    3.3800    0.2643    2.5237 C   0  0  0  0  0  0  0  0  0  0  0  0
    3.1649   -0.3442    1.1408 C   0  0  0  0  0  0  0  0  0  0  0  0
    4.3725   -0.1704    0.2291 C   0  0  0  0  0  0  0  0  0  0  0  0
    4.2504   -1.2646   -0.6956 O   0  0  0  0  0  0  0  0  0  0  0  0
    3.5516   -2.2969    0.0197 C   0  0  0  0  0  0  0  0  0  0  0  0
    3.1010   -1.7702    1.2815 O   0  0  0  0  0  0  0  0  0  0  0  0
    4.5440   -3.3817    0.3153 C   0  0  0  0  0  0  0  0  0  0  0  0
    4.2743   -4.6809    0.1528 C   0  0  0  0  0  0  0  0  0  0  0  0
    2.9366   -5.0335   -0.3045 C   0  0  0  0  0  0  0  0  0  0  0  0
    2.0621   -4.0217   -0.7279 C   0  0  0  0  0  0  0  0  0  0  0  0
    2.4224   -2.6992   -0.7613 O   0  0  0  0  0  0  0  0  0  0  0  0
    0.7703   -4.3314   -1.1789 C   0  0  0  0  0  0  0  0  0  0  0  0
    0.4072   -5.6783   -1.1952 C   0  0  0  0  0  0  0  0  0  0  0  0
    1.2461   -6.7078   -0.7840 C   0  0  0  0  0  0  0  0  0  0  0  0
    2.5386   -6.3835   -0.3300 C   0  0  0  0  0  0  0  0  0  0  0  0
    0.5009   -7.9048   -0.9541 C   0  0  0  0  0  0  0  0  0  0  0  0
   -0.7278   -7.5317   -1.4485 C   0  0  0  0  0  0  0  0  0  0  0  0
   -0.7959   -6.1833   -1.5942 O   0  0  0  0  0  0  0  0  0  0  0  0
   -0.0879   -3.3592   -1.6277 O   0  0  0  0  0  0  0  0  0  0  0  0
   -0.7460   -2.7188   -0.5328 C   0  0  0  0  0  0  0  0  0  0  0  0
   -2.2406   -3.0278   -0.5516 C   0  0  0  0  0  0  0  0  0  0  0  0
   -3.0222   -2.6221   -1.7979 C   0  0  0  0  0  0  0  0  0  0  0  0
   -4.3642   -2.5281   -1.2941 O   0  0  0  0  0  0  0  0  0  0  0  0
   -4.2419   -2.1148    0.0748 C   0  0  0  0  0  0  0  0  0  0  0  0
   -2.8945   -2.3374    0.5218 O   0  0  0  0  0  0  0  0  0  0  0  0
   -5.1265   -3.0110    0.8841 C   0  0  0  0  0  0  0  0  0  0  0  0
   -6.2724   -2.5979    1.4317 C   0  0  0  0  0  0  0  0  0  0  0  0
   -6.6642   -1.2129    1.2035 C   0  0  0  0  0  0  0  0  0  0  0  0
   -5.7589   -0.3145    0.6086 C   0  0  0  0  0  0  0  0  0  0  0  0
   -4.5144   -0.7157    0.1960 O   0  0  0  0  0  0  0  0  0  0  0  0
   -6.0937    1.0434    0.4295 C   0  0  0  0  0  0  0  0  0  0  0  0
   -7.3960    1.4042    0.7968 C   0  0  0  0  0  0  0  0  0  0  0  0
   -8.3218    0.5408    1.3699 C   0  0  0  0  0  0  0  0  0  0  0  0
   -7.9470   -0.7933    1.5958 C   0  0  0  0  0  0  0  0  0  0  0  0
   -9.4934    1.3119    1.5940 C   0  0  0  0  0  0  0  0  0  0  0  0
   -9.2143    2.5807    1.1443 C   0  0  0  0  0  0  0  0  0  0  0  0
   -7.9476    2.6478    0.6621 O   0  0  0  0  0  0  0  0  0  0  0  0
   -5.2861    2.0040   -0.1200 O   0  0  0  0  0  0  0  0  0  0  0  0
   -3.9407    2.0230    0.3841 C   0  0  0  0  0  0  0  0  0  0  0  0
   -3.3462    3.4314    0.1882 C   0  0  0  0  0  0  0  0  0  0  0  0
   -3.7601    4.4769    1.2603 C   0  0  0  0  0  0  0  0  0  0  0  0
   -3.0615    5.8164    0.9828 C   0  0  0  0  0  0  0  0  0  0  0  0
   -5.2705    4.7066    1.3436 C   0  0  0  0  0  0  0  0  0  0  0  0
   -3.3094    4.0169    2.5442 O   0  0  0  0  0  0  0  0  0  0  0  0
   -3.6500    3.8995   -1.1343 O   0  0  0  0  0  0  0  0  0  0  0  0
   -2.6298   -1.2661   -2.3942 C   0  0  0  0  0  0  0  0  0  0  0  0
   -3.0096   -3.6912   -2.8888 C   0  0  0  0  0  0  0  0  0  0  0  0
    4.4599    1.1604   -0.5170 C   0  0  0  0  0  0  0  0  0  0  0  0
    5.7453    1.2822   -1.1450 O   0  0  0  0  0  0  0  0  0  0  0  0
    6.5574    2.2709   -0.6325 C   0  0  0  0  0  0  0  0  0  0  0  0
    7.3303    3.0274   -1.5263 C   0  0  0  0  0  0  0  0  0  0  0  0
    8.2221    4.0177   -1.1055 C   0  0  0  0  0  0  0  0  0  0  0  0
    8.3860    4.2758    0.2634 C   0  0  0  0  0  0  0  0  0  0  0  0
    7.6515    3.5142    1.1934 C   0  0  0  0  0  0  0  0  0  0  0  0
    6.7722    2.5390    0.7250 C   0  0  0  0  0  0  0  0  0  0  0  0
    6.1839    1.9072    1.7838 O   0  0  0  0  0  0  0  0  0  0  0  0
    6.6687    2.4762    2.9164 C   0  0  0  0  0  0  0  0  0  0  0  0
    7.5687    3.4690    2.6110 C   0  0  0  0  0  0  0  0  0  0  0  0
    8.9735    4.7654   -2.1029 C   0  0  0  0  0  0  0  0  0  0  0  0
    8.8039    4.4965   -3.4005 C   0  0  0  0  0  0  0  0  0  0  0  0
    7.8736    3.4603   -3.8788 C   0  0  0  0  0  0  0  0  0  0  0  0
    7.7442    3.2452   -5.0781 O   0  0  0  0  0  0  0  0  0  0  0  0
    7.1686    2.7641   -2.9103 O   0  0  0  0  0  0  0  0  0  0  0  0
    1.8394    0.1598    0.5553 C   0  0  0  0  0  0  0  0  0  0  0  0
    4.2871   -0.1349    2.9913 H   0  0  0  0  0  0  0  0  0  0  0  0
    3.4608    1.3546    2.4791 H   0  0  0  0  0  0  0  0  0  0  0  0
    2.5524    0.0057    3.1942 H   0  0  0  0  0  0  0  0  0  0  0  0
    5.3044   -0.3569    0.7777 H   0  0  0  0  0  0  0  0  0  0  0  0
    5.5141   -3.0720    0.6863 H   0  0  0  0  0  0  0  0  0  0  0  0
    5.0002   -5.4530    0.3764 H   0  0  0  0  0  0  0  0  0  0  0  0
    3.2133   -7.1709   -0.0068 H   0  0  0  0  0  0  0  0  0  0  0  0
    0.8212   -8.9153   -0.7441 H   0  0  0  0  0  0  0  0  0  0  0  0
   -1.6169   -8.0764   -1.7346 H   0  0  0  0  0  0  0  0  0  0  0  0
   -0.5759   -1.6396   -0.6211 H   0  0  0  0  0  0  0  0  0  0  0  0
   -0.3301   -2.9939    0.4476 H   0  0  0  0  0  0  0  0  0  0  0  0
   -2.3840   -4.0997   -0.3621 H   0  0  0  0  0  0  0  0  0  0  0  0
   -4.8133   -4.0426    0.9949 H   0  0  0  0  0  0  0  0  0  0  0  0
   -6.9109   -3.2632    2.0002 H   0  0  0  0  0  0  0  0  0  0  0  0
   -8.6493   -1.4856    2.0507 H   0  0  0  0  0  0  0  0  0  0  0  0
  -10.4267    0.9815    2.0268 H   0  0  0  0  0  0  0  0  0  0  0  0
   -9.7790    3.5015    1.0993 H   0  0  0  0  0  0  0  0  0  0  0  0
   -3.8824    1.7144    1.4345 H   0  0  0  0  0  0  0  0  0  0  0  0
   -3.3499    1.3379   -0.2324 H   0  0  0  0  0  0  0  0  0  0  0  0
   -2.2554    3.3210    0.2454 H   0  0  0  0  0  0  0  0  0  0  0  0
   -3.3848    6.2585    0.0350 H   0  0  0  0  0  0  0  0  0  0  0  0
   -1.9734    5.6878    0.9547 H   0  0  0  0  0  0  0  0  0  0  0  0
   -3.2634    6.5373    1.7836 H   0  0  0  0  0  0  0  0  0  0  0  0
   -5.5010    5.5324    2.0274 H   0  0  0  0  0  0  0  0  0  0  0  0
   -5.7056    4.9443    0.3684 H   0  0  0  0  0  0  0  0  0  0  0  0
   -5.7759    3.8329    1.7637 H   0  0  0  0  0  0  0  0  0  0  0  0
   -3.5905    4.6721    3.2068 H   0  0  0  0  0  0  0  0  0  0  0  0
   -4.5477    3.5656   -1.3338 H   0  0  0  0  0  0  0  0  0  0  0  0
   -3.3741   -0.9389   -3.1293 H   0  0  0  0  0  0  0  0  0  0  0  0
   -2.5868   -0.4833   -1.6311 H   0  0  0  0  0  0  0  0  0  0  0  0
   -1.6547   -1.3086   -2.8899 H   0  0  0  0  0  0  0  0  0  0  0  0
   -2.0166   -3.8217   -3.3279 H   0  0  0  0  0  0  0  0  0  0  0  0
   -3.3458   -4.6571   -2.4950 H   0  0  0  0  0  0  0  0  0  0  0  0
   -3.7083   -3.4312   -3.6925 H   0  0  0  0  0  0  0  0  0  0  0  0
    3.7304    1.1757   -1.3351 H   0  0  0  0  0  0  0  0  0  0  0  0
    4.2316    2.0143    0.1311 H   0  0  0  0  0  0  0  0  0  0  0  0
    9.0760    5.0389    0.6124 H   0  0  0  0  0  0  0  0  0  0  0  0
    6.2861    2.0719    3.8436 H   0  0  0  0  0  0  0  0  0  0  0  0
    8.1071    4.0795    3.3221 H   0  0  0  0  0  0  0  0  0  0  0  0
    9.6664    5.5346   -1.7792 H   0  0  0  0  0  0  0  0  0  0  0  0
    9.3460    5.0312   -4.1710 H   0  0  0  0  0  0  0  0  0  0  0  0
    1.8008    1.2535    0.5261 H   0  0  0  0  0  0  0  0  0  0  0  0
    1.6733   -0.2089   -0.4619 H   0  0  0  0  0  0  0  0  0  0  0  0
    0.9944   -0.1976    1.1551 H   0  0  0  0  0  0  0  0  0  0  0  0
  1  2  1  0
  2  3  1  0
  3  4  1  0
  4  5  1  0
  5  6  1  0
  5  7  1  0
  7  8  2  0
  8  9  1  0
  9 10  2  0
 10 11  1  0
 10 12  1  0
 12 13  2  0
 13 14  1  0
 14 15  2  0
 14 16  1  0
 16 17  2  0
 17 18  1  0
 12 19  1  0
 19 20  1  0
 20 21  1  0
 21 22  1  0
 22 23  1  0
 23 24  1  0
 24 25  1  0
 24 26  1  0
 26 27  2  0
 27 28  1  0
 28 29  2  0
 29 30  1  0
 29 31  1  0
 31 32  2  0
 32 33  1  0
 33 34  2  0
 33 35  1  0
 35 36  2  0
 36 37  1  0
 31 38  1  0
 38 39  1  0
 39 40  1  0
 40 41  1  0
 41 42  1  0
 41 43  1  0
 41 44  1  0
 40 45  1  0
 22 46  1  0
 22 47  1  0
  3 48  1  0
 48 49  1  0
 49 50  1  0
 50 51  1  0
 51 52  2  0
 52 53  1  0
 53 54  2  0
 54 55  1  0
 55 56  1  0
 56 57  1  0
 57 58  2  0
 52 59  1  0
 59 60  2  0
 60 61  1  0
 61 62  2  0
 61 63  1  0
  2 64  1  0
  6  2  1  0
 63 51  1  0
 11  5  1  0
 58 54  1  0
 15  9  1  0
 18 13  1  0
 25 21  1  0
 30 24  1  0
 34 28  1  0
 37 32  1  0
 55 50  2  0
  1 65  1  0
  1 66  1  0
  1 67  1  0
  3 68  1  0
  7 69  1  0
  8 70  1  0
 15 71  1  0
 16 72  1  0
 17 73  1  0
 20 74  1  0
 20 75  1  0
 21 76  1  0
 26 77  1  0
 27 78  1  0
 34 79  1  0
 35 80  1  0
 36 81  1  0
 39 82  1  0
 39 83  1  0
 40 84  1  0
 42 85  1  0
 42 86  1  0
 42 87  1  0
 43 88  1  0
 43 89  1  0
 43 90  1  0
 44 91  1  0
 45 92  1  0
 46 93  1  0
 46 94  1  0
 46 95  1  0
 47 96  1  0
 47 97  1  0
 47 98  1  0
 48 99  1  0
 48100  1  0
 53101  1  0
 57102  1  0
 58103  1  0
 59104  1  0
 60105  1  0
 64106  1  0
 64107  1  0
 64108  1  0
M  END
>  <Name>  (619) 
Rivulotririn C

>  <PubChem ID>  (619) 
100946003

>  <CDB ID>  (619) 
CDB0619

>  <Smiles>  (619) 
CC1(C(OC2(O1)C=CC3=C(O2)C(=C4C(=C3)C=CO4)OCC5C(OC6(O5)C=CC7=C(O6)C(=C8C(=C7)C=CO8)OCC(C(C)(C)O)O)(C)C)COC9=C1C(=CC2=C9OC=C2)C=CC(=O)O1)C

>  <Chemical class>  (619) 
7,8-Dioxygenated Coumarins

>  <Natural source>  (619) 
Pleurospermum rivulorum

>  <Molecular Formula>  (619) 
C48H44O16

>  <InChI-Key>  (619) 
ZDTBWUZSYLVEKG-UHFFFAOYSA-N

>  <Total Molweight>  (619) 
876.861

>  <cLogP>  (619) 
7.9167

>  <cLogS>  (619) 
-10.996

>  <H-Acceptors>  (619) 
16

>  <H-Donors>  (619) 
2

>  <Rotatable Bonds>  (619) 
10

>  <Polar Surface Area>  (619) 
189.25

$$$$
CDB0620
     RDKit          3D

 50 52  0  0  0  0  0  0  0  0999 V2000
    5.3990    2.4919    2.7367 C   0  0  0  0  0  0  0  0  0  0  0  0
    4.4569    2.2012    1.6127 C   0  0  0  0  0  0  0  0  0  0  0  0
    4.0975    0.9983    1.1192 C   0  0  0  0  0  0  0  0  0  0  0  0
    4.6014   -0.3327    1.5921 C   0  0  0  0  0  0  0  0  0  0  0  0
    3.1182    1.0077   -0.0141 C   0  0  0  0  0  0  0  0  0  0  0  0
    2.7203    2.0166   -0.5753 O   0  0  0  0  0  0  0  0  0  0  0  0
    2.7347   -0.2552   -0.3035 O   0  0  0  0  0  0  0  0  0  0  0  0
    1.8050   -0.5653   -1.3958 C   0  0  0  0  0  0  0  0  0  0  0  0
    2.4854   -0.2575   -2.7393 C   0  0  0  0  0  0  0  0  0  0  0  0
    1.6636   -2.0935   -1.2768 C   0  0  0  0  0  0  0  0  0  0  0  0
    0.4345    0.1741   -1.2109 C   0  0  1  0  0  0  0  0  0  0  0  0
    0.4928    1.5026   -1.7677 O   0  0  0  0  0  0  0  0  0  0  0  0
   -0.7655   -0.5247   -1.8837 C   0  0  0  0  0  0  0  0  0  0  0  0
   -1.9937    0.1645   -1.6141 O   0  0  0  0  0  0  0  0  0  0  0  0
   -2.7590   -0.2431   -0.5390 C   0  0  0  0  0  0  0  0  0  0  0  0
   -2.3787   -1.0503    0.5424 C   0  0  0  0  0  0  0  0  0  0  0  0
   -1.1575   -1.6285    0.7522 O   0  0  0  0  0  0  0  0  0  0  0  0
   -1.2220   -2.3205    1.9163 C   0  0  0  0  0  0  0  0  0  0  0  0
   -2.4700   -2.2039    2.4769 C   0  0  0  0  0  0  0  0  0  0  0  0
   -3.2278   -1.3810    1.6004 C   0  0  0  0  0  0  0  0  0  0  0  0
   -4.5454   -0.8838    1.6064 C   0  0  0  0  0  0  0  0  0  0  0  0
   -4.9654   -0.0649    0.5509 C   0  0  0  0  0  0  0  0  0  0  0  0
   -4.0798    0.2397   -0.4860 C   0  0  0  0  0  0  0  0  0  0  0  0
   -4.5123    1.0669   -1.5570 O   0  0  0  0  0  0  0  0  0  0  0  0
   -5.7930    1.5911   -1.6160 C   0  0  0  0  0  0  0  0  0  0  0  0
   -6.1824    2.2968   -2.5391 O   0  0  0  0  0  0  0  0  0  0  0  0
   -6.6937    1.2550   -0.5011 C   0  0  0  0  0  0  0  0  0  0  0  0
   -6.3152    0.4788    0.5182 C   0  0  0  0  0  0  0  0  0  0  0  0
    4.8944    3.1120    3.4847 H   0  0  0  0  0  0  0  0  0  0  0  0
    5.7672    1.5996    3.2457 H   0  0  0  0  0  0  0  0  0  0  0  0
    6.2620    3.0498    2.3600 H   0  0  0  0  0  0  0  0  0  0  0  0
    4.0256    3.1009    1.1696 H   0  0  0  0  0  0  0  0  0  0  0  0
    5.3941   -0.2538    2.3391 H   0  0  0  0  0  0  0  0  0  0  0  0
    3.7869   -0.9121    2.0396 H   0  0  0  0  0  0  0  0  0  0  0  0
    5.0178   -0.9041    0.7551 H   0  0  0  0  0  0  0  0  0  0  0  0
    1.8590   -0.5646   -3.5830 H   0  0  0  0  0  0  0  0  0  0  0  0
    2.7132    0.8064   -2.8550 H   0  0  0  0  0  0  0  0  0  0  0  0
    3.4465   -0.7796   -2.8148 H   0  0  0  0  0  0  0  0  0  0  0  0
    1.0999   -2.5276   -2.1081 H   0  0  0  0  0  0  0  0  0  0  0  0
    2.6499   -2.5740   -1.2615 H   0  0  0  0  0  0  0  0  0  0  0  0
    1.1808   -2.3696   -0.3337 H   0  0  0  0  0  0  0  0  0  0  0  0
    0.2327    0.3132   -0.1438 H   0  0  0  0  0  0  0  0  0  0  0  0
    1.2373    1.9735   -1.3359 H   0  0  0  0  0  0  0  0  0  0  0  0
   -0.6371   -0.4723   -2.9716 H   0  0  0  0  0  0  0  0  0  0  0  0
   -0.8630   -1.5857   -1.6400 H   0  0  0  0  0  0  0  0  0  0  0  0
   -0.3153   -2.8330    2.2070 H   0  0  0  0  0  0  0  0  0  0  0  0
   -2.7953   -2.6513    3.4054 H   0  0  0  0  0  0  0  0  0  0  0  0
   -5.2148   -1.1330    2.4248 H   0  0  0  0  0  0  0  0  0  0  0  0
   -7.6893    1.6776   -0.5593 H   0  0  0  0  0  0  0  0  0  0  0  0
   -7.0005    0.2473    1.3263 H   0  0  0  0  0  0  0  0  0  0  0  0
  1  2  1  0
  2  3  2  3
  3  4  1  0
  3  5  1  0
  5  6  2  0
  5  7  1  0
  7  8  1  0
  8  9  1  0
  8 10  1  0
  8 11  1  0
 11 12  1  0
 11 13  1  0
 13 14  1  0
 14 15  1  0
 15 16  2  0
 16 17  1  0
 17 18  1  0
 18 19  2  0
 19 20  1  0
 20 21  2  0
 21 22  1  0
 22 23  2  0
 23 24  1  0
 24 25  1  0
 25 26  2  0
 25 27  1  0
 27 28  2  0
 23 15  1  0
 20 16  1  0
 28 22  1  0
  1 29  1  0
  1 30  1  0
  1 31  1  0
  2 32  1  0
  4 33  1  0
  4 34  1  0
  4 35  1  0
  9 36  1  0
  9 37  1  0
  9 38  1  0
 10 39  1  0
 10 40  1  0
 10 41  1  0
 11 42  1  1
 12 43  1  0
 13 44  1  0
 13 45  1  0
 18 46  1  0
 19 47  1  0
 21 48  1  0
 27 49  1  0
 28 50  1  0
M  END
>  <Name>  (620) 
Tomasin

>  <PubChem ID>  (620) 
24039335

>  <CDB ID>  (620) 
CDB0620

>  <Smiles>  (620) 
CC=C(C)C(=O)OC(C)(C)[C@@H](O)COC1=C2OC=CC2=CC2=C1OC(=O)C=C2

>  <Chemical class>  (620) 
7,8-Dioxygenated Coumarins

>  <Natural source>  (620) 
Xanthogalum purpurascens

>  <Molecular Formula>  (620) 
C21H22O7

>  <InChI-Key>  (620) 
QPQHCRKTYXPSQG-HNNXBMFYSA-N

>  <Total Molweight>  (620) 
386.399

>  <cLogP>  (620) 
3.2787

>  <cLogS>  (620) 
-4.544

>  <H-Acceptors>  (620) 
7

>  <H-Donors>  (620) 
1

>  <Rotatable Bonds>  (620) 
7

>  <Polar Surface Area>  (620) 
95.2

$$$$
CDB0621
     RDKit          3D

 48 50  0  0  0  0  0  0  0  0999 V2000
    2.5858    2.3704    1.5225 C   0  0  0  0  0  0  0  0  0  0  0  0
    3.5957    1.5734    1.1292 C   0  0  0  0  0  0  0  0  0  0  0  0
    4.9516    1.6902    1.7688 C   0  0  0  0  0  0  0  0  0  0  0  0
    3.3908    0.5340    0.0428 C   0  0  1  0  0  0  0  0  0  0  0  0
    4.3454    0.7460   -0.9953 O   0  0  0  0  0  0  0  0  0  0  0  0
    3.4939   -0.9048    0.5711 C   0  0  0  0  0  0  0  0  0  0  0  0
    3.1707   -1.9762   -0.4839 C   0  0  0  0  0  0  0  0  0  0  0  0
    1.7607   -1.9042   -1.0410 C   0  0  0  0  0  0  0  0  0  0  0  0
    1.6779   -1.5128   -2.4918 C   0  0  0  0  0  0  0  0  0  0  0  0
    0.7050   -2.1624   -0.2424 C   0  0  0  0  0  0  0  0  0  0  0  0
   -0.7596   -2.0933   -0.5631 C   0  0  0  0  0  0  0  0  0  0  0  0
   -1.3095   -1.0967    0.3008 O   0  0  0  0  0  0  0  0  0  0  0  0
   -2.5043   -0.5515   -0.1209 C   0  0  0  0  0  0  0  0  0  0  0  0
   -3.5254   -1.2091   -0.8176 C   0  0  0  0  0  0  0  0  0  0  0  0
   -3.5219   -2.5085   -1.2397 O   0  0  0  0  0  0  0  0  0  0  0  0
   -4.7003   -2.7334   -1.8732 C   0  0  0  0  0  0  0  0  0  0  0  0
   -5.4764   -1.5991   -1.8667 C   0  0  0  0  0  0  0  0  0  0  0  0
   -4.7291   -0.6049   -1.1796 C   0  0  0  0  0  0  0  0  0  0  0  0
   -4.9533    0.7406   -0.8255 C   0  0  0  0  0  0  0  0  0  0  0  0
   -3.9632    1.4289   -0.1096 C   0  0  0  0  0  0  0  0  0  0  0  0
   -2.7747    0.7795    0.2330 C   0  0  0  0  0  0  0  0  0  0  0  0
   -1.7713    1.4757    0.9546 O   0  0  0  0  0  0  0  0  0  0  0  0
   -1.9230    2.7986    1.3353 C   0  0  0  0  0  0  0  0  0  0  0  0
   -1.0599    3.4141    1.9501 O   0  0  0  0  0  0  0  0  0  0  0  0
   -3.1895    3.4509    0.9632 C   0  0  0  0  0  0  0  0  0  0  0  0
   -4.1515    2.8170    0.2864 C   0  0  0  0  0  0  0  0  0  0  0  0
    1.5946    2.3002    1.0809 H   0  0  0  0  0  0  0  0  0  0  0  0
    2.7108    3.1180    2.3000 H   0  0  0  0  0  0  0  0  0  0  0  0
    5.2524    0.7394    2.2187 H   0  0  0  0  0  0  0  0  0  0  0  0
    5.7044    1.9833    1.0307 H   0  0  0  0  0  0  0  0  0  0  0  0
    4.9657    2.4439    2.5639 H   0  0  0  0  0  0  0  0  0  0  0  0
    2.4053    0.6846   -0.4116 H   0  0  0  0  0  0  0  0  0  0  0  0
    5.2240    0.5656   -0.6261 H   0  0  0  0  0  0  0  0  0  0  0  0
    4.5172   -1.0987    0.9174 H   0  0  0  0  0  0  0  0  0  0  0  0
    2.8363   -1.0303    1.4403 H   0  0  0  0  0  0  0  0  0  0  0  0
    3.9017   -1.9162   -1.3000 H   0  0  0  0  0  0  0  0  0  0  0  0
    3.3184   -2.9673   -0.0346 H   0  0  0  0  0  0  0  0  0  0  0  0
    2.1526   -0.5390   -2.6499 H   0  0  0  0  0  0  0  0  0  0  0  0
    0.6564   -1.4387   -2.8685 H   0  0  0  0  0  0  0  0  0  0  0  0
    2.1991   -2.2531   -3.1080 H   0  0  0  0  0  0  0  0  0  0  0  0
    0.8992   -2.4356    0.7947 H   0  0  0  0  0  0  0  0  0  0  0  0
   -1.2108   -3.0645   -0.3320 H   0  0  0  0  0  0  0  0  0  0  0  0
   -0.9390   -1.8511   -1.6138 H   0  0  0  0  0  0  0  0  0  0  0  0
   -4.8362   -3.7320   -2.2653 H   0  0  0  0  0  0  0  0  0  0  0  0
   -6.4625   -1.5015   -2.2981 H   0  0  0  0  0  0  0  0  0  0  0  0
   -5.8860    1.2246   -1.1011 H   0  0  0  0  0  0  0  0  0  0  0  0
   -3.2939    4.4836    1.2730 H   0  0  0  0  0  0  0  0  0  0  0  0
   -5.0749    3.3224    0.0249 H   0  0  0  0  0  0  0  0  0  0  0  0
  1  2  2  0
  2  3  1  0
  2  4  1  0
  4  5  1  0
  4  6  1  0
  6  7  1  0
  7  8  1  0
  8  9  1  0
  8 10  2  3
 10 11  1  0
 11 12  1  0
 12 13  1  0
 13 14  2  0
 14 15  1  0
 15 16  1  0
 16 17  2  0
 17 18  1  0
 18 19  2  0
 19 20  1  0
 20 21  2  0
 21 22  1  0
 22 23  1  0
 23 24  2  0
 23 25  1  0
 25 26  2  0
 21 13  1  0
 18 14  1  0
 26 20  1  0
  1 27  1  0
  1 28  1  0
  3 29  1  0
  3 30  1  0
  3 31  1  0
  4 32  1  6
  5 33  1  0
  6 34  1  0
  6 35  1  0
  7 36  1  0
  7 37  1  0
  9 38  1  0
  9 39  1  0
  9 40  1  0
 10 41  1  0
 11 42  1  0
 11 43  1  0
 16 44  1  0
 17 45  1  0
 19 46  1  0
 25 47  1  0
 26 48  1  0
M  END
>  <Name>  (621) 
Lansiumarin-C

>  <PubChem ID>  (621) 
10498320

>  <CDB ID>  (621) 
CDB0621

>  <Smiles>  (621) 
C=C(C)[C@@H](O)CCC(C)=CCOC1=C2OC=CC2=CC2=C1OC(=O)C=C2

>  <Chemical class>  (621) 
7,8-Dioxygenated Coumarins

>  <Natural source>  (621) 
Clausena lansium

>  <Molecular Formula>  (621) 
C21H22O5

>  <InChI-Key>  (621) 
DBHLROWQWPSCQG-KRWDZBQOSA-N

>  <Total Molweight>  (621) 
354.401

>  <cLogP>  (621) 
4.765

>  <cLogS>  (621) 
-5.027

>  <H-Acceptors>  (621) 
5

>  <H-Donors>  (621) 
1

>  <Rotatable Bonds>  (621) 
7

>  <Polar Surface Area>  (621) 
68.9

$$$$
CDB0622
     RDKit          3D

 46 48  0  0  0  0  0  0  0  0999 V2000
   -5.0731    0.3821    2.3461 C   0  0  0  0  0  0  0  0  0  0  0  0
   -3.8639    1.2572    2.3704 C   0  0  0  0  0  0  0  0  0  0  0  0
   -2.8657    1.1203    3.2574 C   0  0  0  0  0  0  0  0  0  0  0  0
   -3.7751    2.4020    1.4087 C   0  0  0  0  0  0  0  0  0  0  0  0
   -3.3394    3.4926    1.7799 O   0  0  0  0  0  0  0  0  0  0  0  0
   -4.1950    2.1759   -0.0306 C   0  0  0  0  0  0  0  0  0  0  0  0
   -2.9814    2.1534   -0.9573 C   0  0  0  0  0  0  0  0  0  0  0  0
   -2.1189    0.9132   -0.7888 C   0  0  0  0  0  0  0  0  0  0  0  0
   -0.9092    1.0128   -0.2000 C   0  0  0  0  0  0  0  0  0  0  0  0
    0.0927   -0.0687    0.0873 C   0  0  0  0  0  0  0  0  0  0  0  0
    1.2740    0.2506   -0.6428 O   0  0  0  0  0  0  0  0  0  0  0  0
    2.3456   -0.6128   -0.5051 C   0  0  0  0  0  0  0  0  0  0  0  0
    3.4960   -0.3187   -1.2594 C   0  0  0  0  0  0  0  0  0  0  0  0
    4.6556   -1.0974   -1.2204 C   0  0  0  0  0  0  0  0  0  0  0  0
    4.7054   -2.2313   -0.3994 C   0  0  0  0  0  0  0  0  0  0  0  0
    3.5764   -2.5631    0.3746 C   0  0  0  0  0  0  0  0  0  0  0  0
    2.4400   -1.7553    0.3029 C   0  0  0  0  0  0  0  0  0  0  0  0
    1.4770   -2.2616    1.1315 O   0  0  0  0  0  0  0  0  0  0  0  0
    1.9838   -3.3713    1.7231 C   0  0  0  0  0  0  0  0  0  0  0  0
    3.2680   -3.6019    1.2940 C   0  0  0  0  0  0  0  0  0  0  0  0
    5.7978   -0.7146   -2.0373 C   0  0  0  0  0  0  0  0  0  0  0  0
    5.7256    0.3704   -2.8133 C   0  0  0  0  0  0  0  0  0  0  0  0
    4.5210    1.2138   -2.8827 C   0  0  0  0  0  0  0  0  0  0  0  0
    4.4919    2.2000   -3.6094 O   0  0  0  0  0  0  0  0  0  0  0  0
    3.4492    0.8296   -2.0937 O   0  0  0  0  0  0  0  0  0  0  0  0
   -2.6983   -0.3568   -1.3506 C   0  0  0  0  0  0  0  0  0  0  0  0
   -5.0268   -0.3211    1.5090 H   0  0  0  0  0  0  0  0  0  0  0  0
   -5.9835    0.9828    2.2506 H   0  0  0  0  0  0  0  0  0  0  0  0
   -5.1647   -0.2042    3.2669 H   0  0  0  0  0  0  0  0  0  0  0  0
   -2.0167    1.7999    3.2634 H   0  0  0  0  0  0  0  0  0  0  0  0
   -2.8729    0.3341    4.0045 H   0  0  0  0  0  0  0  0  0  0  0  0
   -4.7920    1.2668   -0.1373 H   0  0  0  0  0  0  0  0  0  0  0  0
   -4.8568    3.0066   -0.3044 H   0  0  0  0  0  0  0  0  0  0  0  0
   -2.3832    3.0604   -0.7991 H   0  0  0  0  0  0  0  0  0  0  0  0
   -3.3229    2.2031   -1.9989 H   0  0  0  0  0  0  0  0  0  0  0  0
   -0.5824    1.9944    0.1458 H   0  0  0  0  0  0  0  0  0  0  0  0
    0.2983   -0.0513    1.1641 H   0  0  0  0  0  0  0  0  0  0  0  0
   -0.2777   -1.0551   -0.2012 H   0  0  0  0  0  0  0  0  0  0  0  0
    5.5958   -2.8518   -0.3518 H   0  0  0  0  0  0  0  0  0  0  0  0
    1.3217   -3.8777    2.4119 H   0  0  0  0  0  0  0  0  0  0  0  0
    3.9058   -4.4172    1.6050 H   0  0  0  0  0  0  0  0  0  0  0  0
    6.6987   -1.3179   -2.0058 H   0  0  0  0  0  0  0  0  0  0  0  0
    6.5551    0.6857   -3.4344 H   0  0  0  0  0  0  0  0  0  0  0  0
   -1.9755   -1.1731   -1.4112 H   0  0  0  0  0  0  0  0  0  0  0  0
   -3.0630   -0.1869   -2.3694 H   0  0  0  0  0  0  0  0  0  0  0  0
   -3.5373   -0.6981   -0.7368 H   0  0  0  0  0  0  0  0  0  0  0  0
  1  2  1  0
  2  3  2  0
  2  4  1  0
  4  5  2  0
  4  6  1  0
  6  7  1  0
  7  8  1  0
  8  9  2  3
  9 10  1  0
 10 11  1  0
 11 12  1  0
 12 13  1  0
 13 14  2  0
 14 15  1  0
 15 16  2  0
 16 17  1  0
 17 18  1  0
 18 19  1  0
 19 20  2  0
 14 21  1  0
 21 22  2  0
 22 23  1  0
 23 24  2  0
 23 25  1  0
  8 26  1  0
 17 12  2  0
 25 13  1  0
 20 16  1  0
  1 27  1  0
  1 28  1  0
  1 29  1  0
  3 30  1  0
  3 31  1  0
  6 32  1  0
  6 33  1  0
  7 34  1  0
  7 35  1  0
  9 36  1  0
 10 37  1  0
 10 38  1  0
 15 39  1  0
 19 40  1  0
 20 41  1  0
 21 42  1  0
 22 43  1  0
 26 44  1  0
 26 45  1  0
 26 46  1  0
M  END
>  <Name>  (622) 
Lansiumarin-A

>  <PubChem ID>  (622) 
11792299

>  <CDB ID>  (622) 
CDB0622

>  <Smiles>  (622) 
CC(=C)C(=O)CCC(=CCOC1=C2C(=CC3=C1OC=C3)C=CC(=O)O2)C

>  <Chemical class>  (622) 
7,8-Dioxygenated Coumarins

>  <Natural source>  (622) 
Clausena lansium

>  <Molecular Formula>  (622) 
C21H20O5

>  <InChI-Key>  (622) 
XWVDCVZOOVTJKF-UHFFFAOYSA-N

>  <Total Molweight>  (622) 
352.385

>  <cLogP>  (622) 
4.7338

>  <cLogS>  (622) 
-5.078

>  <H-Acceptors>  (622) 
5

>  <H-Donors>  (622) 
0

>  <Rotatable Bonds>  (622) 
7

>  <Polar Surface Area>  (622) 
65.74

$$$$
CDB0623
     RDKit          3D

 49 51  0  0  0  0  0  0  0  0999 V2000
    1.0115   -1.9538   -1.6642 C   0  0  0  0  0  0  0  0  0  0  0  0
    1.0759   -1.7875   -0.1688 C   0  0  0  0  0  0  0  0  0  0  0  0
    0.0053   -1.5673    0.6232 C   0  0  0  0  0  0  0  0  0  0  0  0
   -1.4301   -1.3859    0.2179 C   0  0  0  0  0  0  0  0  0  0  0  0
   -1.9314   -0.2670    0.9491 O   0  0  0  0  0  0  0  0  0  0  0  0
   -3.2598    0.0633    0.7501 C   0  0  0  0  0  0  0  0  0  0  0  0
   -3.7519    1.1677    1.4690 C   0  0  0  0  0  0  0  0  0  0  0  0
   -5.0706    1.6187    1.3695 C   0  0  0  0  0  0  0  0  0  0  0  0
   -5.9699    0.9592    0.5217 C   0  0  0  0  0  0  0  0  0  0  0  0
   -5.5207   -0.1530   -0.2165 C   0  0  0  0  0  0  0  0  0  0  0  0
   -4.1940   -0.5671   -0.0848 C   0  0  0  0  0  0  0  0  0  0  0  0
   -3.9821   -1.6550   -0.8857 O   0  0  0  0  0  0  0  0  0  0  0  0
   -5.1479   -1.9341   -1.5193 C   0  0  0  0  0  0  0  0  0  0  0  0
   -6.1243   -1.0435   -1.1452 C   0  0  0  0  0  0  0  0  0  0  0  0
   -5.4895    2.7720    2.1525 C   0  0  0  0  0  0  0  0  0  0  0  0
   -4.6138    3.3832    2.9552 C   0  0  0  0  0  0  0  0  0  0  0  0
   -3.2175    2.9361    3.0879 C   0  0  0  0  0  0  0  0  0  0  0  0
   -2.4441    3.5214    3.8368 O   0  0  0  0  0  0  0  0  0  0  0  0
   -2.8437    1.8378    2.3310 O   0  0  0  0  0  0  0  0  0  0  0  0
    2.4622   -1.9186    0.4320 C   0  0  0  0  0  0  0  0  0  0  0  0
    3.3264   -0.7335    0.1056 C   0  0  0  0  0  0  0  0  0  0  0  0
    4.4491   -0.7953   -0.6330 C   0  0  0  0  0  0  0  0  0  0  0  0
    5.3663    0.3637   -0.9980 C   0  0  0  0  0  0  0  0  0  0  0  0
    6.7771    0.0516   -0.4842 C   0  0  0  0  0  0  0  0  0  0  0  0
    5.3523    0.5229   -2.5241 C   0  0  0  0  0  0  0  0  0  0  0  0
    4.8750    1.5608   -0.3656 O   0  0  0  0  0  0  0  0  0  0  0  0
    5.7243    2.6750   -0.7730 O   0  0  0  0  0  0  0  0  0  0  0  0
    1.5728   -2.8434   -1.9700 H   0  0  0  0  0  0  0  0  0  0  0  0
    1.4456   -1.0829   -2.1653 H   0  0  0  0  0  0  0  0  0  0  0  0
   -0.0063   -2.0856   -2.0388 H   0  0  0  0  0  0  0  0  0  0  0  0
    0.1647   -1.4860    1.6983 H   0  0  0  0  0  0  0  0  0  0  0  0
   -1.5201   -1.1887   -0.8533 H   0  0  0  0  0  0  0  0  0  0  0  0
   -1.9782   -2.2924    0.4978 H   0  0  0  0  0  0  0  0  0  0  0  0
   -7.0000    1.2911    0.4276 H   0  0  0  0  0  0  0  0  0  0  0  0
   -5.1234   -2.7806   -2.1917 H   0  0  0  0  0  0  0  0  0  0  0  0
   -7.1462   -1.0354   -1.4969 H   0  0  0  0  0  0  0  0  0  0  0  0
   -6.5128    3.1230    2.0745 H   0  0  0  0  0  0  0  0  0  0  0  0
   -4.8895    4.2436    3.5527 H   0  0  0  0  0  0  0  0  0  0  0  0
    2.9189   -2.8531    0.0826 H   0  0  0  0  0  0  0  0  0  0  0  0
    2.4076   -2.0054    1.5245 H   0  0  0  0  0  0  0  0  0  0  0  0
    2.9959    0.2193    0.5160 H   0  0  0  0  0  0  0  0  0  0  0  0
    4.7521   -1.7642   -1.0279 H   0  0  0  0  0  0  0  0  0  0  0  0
    6.7902   -0.0065    0.6107 H   0  0  0  0  0  0  0  0  0  0  0  0
    7.4866    0.8392   -0.7616 H   0  0  0  0  0  0  0  0  0  0  0  0
    7.1571   -0.8946   -0.8855 H   0  0  0  0  0  0  0  0  0  0  0  0
    5.6340   -0.4058   -3.0331 H   0  0  0  0  0  0  0  0  0  0  0  0
    4.3582    0.8232   -2.8762 H   0  0  0  0  0  0  0  0  0  0  0  0
    6.0477    1.3033   -2.8528 H   0  0  0  0  0  0  0  0  0  0  0  0
    5.0105    3.2104   -1.1643 H   0  0  0  0  0  0  0  0  0  0  0  0
  1  2  1  0
  2  3  2  3
  3  4  1  0
  4  5  1  0
  5  6  1  0
  6  7  1  0
  7  8  2  0
  8  9  1  0
  9 10  2  0
 10 11  1  0
 11 12  1  0
 12 13  1  0
 13 14  2  0
  8 15  1  0
 15 16  2  0
 16 17  1  0
 17 18  2  0
 17 19  1  0
  2 20  1  0
 20 21  1  0
 21 22  2  3
 22 23  1  0
 23 24  1  0
 23 25  1  0
 23 26  1  0
 26 27  1  0
 11  6  2  0
 19  7  1  0
 14 10  1  0
  1 28  1  0
  1 29  1  0
  1 30  1  0
  3 31  1  0
  4 32  1  0
  4 33  1  0
  9 34  1  0
 13 35  1  0
 14 36  1  0
 15 37  1  0
 16 38  1  0
 20 39  1  0
 20 40  1  0
 21 41  1  0
 22 42  1  0
 24 43  1  0
 24 44  1  0
 24 45  1  0
 25 46  1  0
 25 47  1  0
 25 48  1  0
 27 49  1  0
M  END
>  <Name>  (623) 
Lansiumarin-B

>  <PubChem ID>  (623) 
10499386

>  <CDB ID>  (623) 
CDB0623

>  <Smiles>  (623) 
CC(=CCOC1=C2C(=CC3=C1OC=C3)C=CC(=O)O2)CC=CC(C)(C)OO

>  <Chemical class>  (623) 
7,8-Dioxygenated Coumarins

>  <Natural source>  (623) 
Clausena lansium

>  <Molecular Formula>  (623) 
C21H22O6

>  <InChI-Key>  (623) 
NNZMYFZCHMIZMN-UHFFFAOYSA-N

>  <Total Molweight>  (623) 
370.4

>  <cLogP>  (623) 
4.6746

>  <cLogS>  (623) 
-5.17

>  <H-Acceptors>  (623) 
6

>  <H-Donors>  (623) 
1

>  <Rotatable Bonds>  (623) 
7

>  <Polar Surface Area>  (623) 
78.13

$$$$
CDB0624
     RDKit          3D

 45 48  0  0  0  0  0  0  0  0999 V2000
   -1.8397   -0.0063    1.7593 C   0  0  0  0  0  0  0  0  0  0  0  0
   -1.7660   -0.0440    0.2554 C   0  0  0  0  0  0  0  0  0  0  0  0
   -0.6704    0.2694   -0.4676 C   0  0  0  0  0  0  0  0  0  0  0  0
    0.6736    0.7405    0.0143 C   0  0  0  0  0  0  0  0  0  0  0  0
    1.6441   -0.1426   -0.5446 O   0  0  0  0  0  0  0  0  0  0  0  0
    2.9671    0.0979   -0.2210 C   0  0  0  0  0  0  0  0  0  0  0  0
    3.4948    1.1467    0.5458 C   0  0  0  0  0  0  0  0  0  0  0  0
    2.8006    2.1640    1.1396 O   0  0  0  0  0  0  0  0  0  0  0  0
    3.6958    2.9543    1.7817 C   0  0  0  0  0  0  0  0  0  0  0  0
    4.9708    2.4710    1.6156 C   0  0  0  0  0  0  0  0  0  0  0  0
    4.8557    1.3017    0.8161 C   0  0  0  0  0  0  0  0  0  0  0  0
    5.7703    0.3643    0.2978 C   0  0  0  0  0  0  0  0  0  0  0  0
    5.2873   -0.6971   -0.4785 C   0  0  0  0  0  0  0  0  0  0  0  0
    3.9163   -0.8108   -0.7228 C   0  0  0  0  0  0  0  0  0  0  0  0
    3.4302   -1.8858   -1.5132 O   0  0  0  0  0  0  0  0  0  0  0  0
    4.2725   -2.8396   -2.0608 C   0  0  0  0  0  0  0  0  0  0  0  0
    3.8653   -3.7678   -2.7494 O   0  0  0  0  0  0  0  0  0  0  0  0
    5.7094   -2.6899   -1.7778 C   0  0  0  0  0  0  0  0  0  0  0  0
    6.1941   -1.6889   -1.0377 C   0  0  0  0  0  0  0  0  0  0  0  0
   -3.0347   -0.5142   -0.4453 C   0  0  0  0  0  0  0  0  0  0  0  0
   -4.1847    0.5033   -0.3697 C   0  0  1  0  0  0  0  0  0  0  0  0
   -5.2962    0.1748   -1.2952 C   0  0  0  0  0  0  0  0  0  0  0  0
   -6.4270   -0.0496   -0.6291 C   0  0  0  0  0  0  0  0  0  0  0  0
   -7.7765   -0.4043   -1.1152 C   0  0  0  0  0  0  0  0  0  0  0  0
   -6.1173    0.1242    0.7938 C   0  0  0  0  0  0  0  0  0  0  0  0
   -6.9077   -0.0074    1.7099 O   0  0  0  0  0  0  0  0  0  0  0  0
   -4.8053    0.4610    0.9219 O   0  0  0  0  0  0  0  0  0  0  0  0
   -2.3144   -0.9174    2.1392 H   0  0  0  0  0  0  0  0  0  0  0  0
   -2.4273    0.8553    2.0905 H   0  0  0  0  0  0  0  0  0  0  0  0
   -0.8605    0.0546    2.2386 H   0  0  0  0  0  0  0  0  0  0  0  0
   -0.7228    0.1884   -1.5532 H   0  0  0  0  0  0  0  0  0  0  0  0
    0.8287    1.7559   -0.3680 H   0  0  0  0  0  0  0  0  0  0  0  0
    0.7422    0.7343    1.1042 H   0  0  0  0  0  0  0  0  0  0  0  0
    3.2791    3.8061    2.3017 H   0  0  0  0  0  0  0  0  0  0  0  0
    5.8736    2.9066    2.0197 H   0  0  0  0  0  0  0  0  0  0  0  0
    6.8317    0.4738    0.5018 H   0  0  0  0  0  0  0  0  0  0  0  0
    6.3539   -3.4457   -2.2100 H   0  0  0  0  0  0  0  0  0  0  0  0
    7.2582   -1.6029   -0.8453 H   0  0  0  0  0  0  0  0  0  0  0  0
   -2.8100   -0.7252   -1.4995 H   0  0  0  0  0  0  0  0  0  0  0  0
   -3.3396   -1.4702    0.0012 H   0  0  0  0  0  0  0  0  0  0  0  0
   -3.8274    1.5232   -0.5530 H   0  0  0  0  0  0  0  0  0  0  0  0
   -5.1902    0.1320   -2.3697 H   0  0  0  0  0  0  0  0  0  0  0  0
   -8.0937   -1.3668   -0.7017 H   0  0  0  0  0  0  0  0  0  0  0  0
   -8.5049    0.3567   -0.8183 H   0  0  0  0  0  0  0  0  0  0  0  0
   -7.7986   -0.4834   -2.2069 H   0  0  0  0  0  0  0  0  0  0  0  0
  1  2  1  0
  2  3  2  3
  3  4  1  0
  4  5  1  0
  5  6  1  0
  6  7  2  0
  7  8  1  0
  8  9  1  0
  9 10  2  0
 10 11  1  0
 11 12  2  0
 12 13  1  0
 13 14  2  0
 14 15  1  0
 15 16  1  0
 16 17  2  0
 16 18  1  0
 18 19  2  0
  2 20  1  0
 20 21  1  0
 21 22  1  0
 22 23  2  0
 23 24  1  0
 23 25  1  0
 25 26  2  0
 25 27  1  0
 14  6  1  0
 27 21  1  0
 11  7  1  0
 19 13  1  0
  1 28  1  0
  1 29  1  0
  1 30  1  0
  3 31  1  0
  4 32  1  0
  4 33  1  0
  9 34  1  0
 10 35  1  0
 12 36  1  0
 18 37  1  0
 19 38  1  0
 20 39  1  0
 20 40  1  0
 21 41  1  6
 22 42  1  0
 24 43  1  0
 24 44  1  0
 24 45  1  0
M  END
>  <Name>  (624) 
Indicolactone (Wampetin)

>  <PubChem ID>  (624) 
5375648

>  <CDB ID>  (624) 
CDB0624

>  <Smiles>  (624) 
CC(=CCOC1=C2OC=CC2=CC2=C1OC(=O)C=C2)C[C@H]1C=C(C)C(=O)O1

>  <Chemical class>  (624) 
7,8-Dioxygenated Coumarins

>  <Natural source>  (624) 
Clausena lansium

>  <Molecular Formula>  (624) 
C21H18O6

>  <InChI-Key>  (624) 
XVVBVBKVMMNZHB-INIZCTEOSA-N

>  <Total Molweight>  (624) 
366.368

>  <cLogP>  (624) 
3.4948

>  <cLogS>  (624) 
-4.816

>  <H-Acceptors>  (624) 
6

>  <H-Donors>  (624) 
0

>  <Rotatable Bonds>  (624) 
5

>  <Polar Surface Area>  (624) 
74.97

$$$$
CDB0625
     RDKit          3D

 47 50  0  0  0  0  0  0  0  0999 V2000
    1.6343    1.0495    3.2942 C   0  0  0  0  0  0  0  0  0  0  0  0
    2.0862    0.4125    2.0050 C   0  0  0  0  0  0  0  0  0  0  0  0
    1.3514    0.3467    0.8686 C   0  0  0  0  0  0  0  0  0  0  0  0
    1.9126   -0.2610   -0.4089 C   0  0  0  0  0  0  0  0  0  0  0  0
    3.4496   -0.4196   -0.4447 C   0  0  0  0  0  0  0  0  0  0  0  0
    3.9073   -1.0156    0.8966 C   0  0  0  0  0  0  0  0  0  0  0  0
    3.4872   -0.1603    2.0920 C   0  0  0  0  0  0  0  0  0  0  0  0
    4.1295    0.9388   -0.7088 C   0  0  0  0  0  0  0  0  0  0  0  0
    3.8362   -1.3767   -1.5866 C   0  0  0  0  0  0  0  0  0  0  0  0
   -0.0759    0.8446    0.7198 C   0  0  0  0  0  0  0  0  0  0  0  0
   -0.8672   -0.2202    0.1889 O   0  0  0  0  0  0  0  0  0  0  0  0
   -2.1609    0.0904   -0.1862 C   0  0  0  0  0  0  0  0  0  0  0  0
   -2.8766   -0.9053   -0.8744 C   0  0  0  0  0  0  0  0  0  0  0  0
   -4.1950   -0.7386   -1.3058 C   0  0  0  0  0  0  0  0  0  0  0  0
   -4.8634    0.4663   -1.0521 C   0  0  0  0  0  0  0  0  0  0  0  0
   -4.1862    1.4894   -0.3601 C   0  0  0  0  0  0  0  0  0  0  0  0
   -2.8692    1.2770    0.0511 C   0  0  0  0  0  0  0  0  0  0  0  0
   -2.4173    2.3905    0.7032 O   0  0  0  0  0  0  0  0  0  0  0  0
   -3.4215    3.3014    0.7078 C   0  0  0  0  0  0  0  0  0  0  0  0
   -4.5291    2.8004    0.0683 C   0  0  0  0  0  0  0  0  0  0  0  0
   -4.8544   -1.8256   -2.0145 C   0  0  0  0  0  0  0  0  0  0  0  0
   -4.1946   -2.9638   -2.2467 C   0  0  0  0  0  0  0  0  0  0  0  0
   -2.8040   -3.1743   -1.8116 C   0  0  0  0  0  0  0  0  0  0  0  0
   -2.2298   -4.2307   -2.0480 O   0  0  0  0  0  0  0  0  0  0  0  0
   -2.2005   -2.1264   -1.1360 O   0  0  0  0  0  0  0  0  0  0  0  0
    2.4308    1.6843    3.6986 H   0  0  0  0  0  0  0  0  0  0  0  0
    1.4037    0.2766    4.0343 H   0  0  0  0  0  0  0  0  0  0  0  0
    0.7600    1.6937    3.1850 H   0  0  0  0  0  0  0  0  0  0  0  0
    1.6014    0.3494   -1.2672 H   0  0  0  0  0  0  0  0  0  0  0  0
    1.4421   -1.2452   -0.5392 H   0  0  0  0  0  0  0  0  0  0  0  0
    4.9963   -1.1488    0.9121 H   0  0  0  0  0  0  0  0  0  0  0  0
    3.4744   -2.0186    1.0157 H   0  0  0  0  0  0  0  0  0  0  0  0
    4.1948    0.6703    2.2082 H   0  0  0  0  0  0  0  0  0  0  0  0
    3.5747   -0.7743    2.9972 H   0  0  0  0  0  0  0  0  0  0  0  0
    3.8500    1.3309   -1.6936 H   0  0  0  0  0  0  0  0  0  0  0  0
    5.2207    0.8401   -0.6899 H   0  0  0  0  0  0  0  0  0  0  0  0
    3.8529    1.6975    0.0297 H   0  0  0  0  0  0  0  0  0  0  0  0
    3.3902   -2.3675   -1.4442 H   0  0  0  0  0  0  0  0  0  0  0  0
    3.4944   -0.9948   -2.5552 H   0  0  0  0  0  0  0  0  0  0  0  0
    4.9228   -1.5072   -1.6418 H   0  0  0  0  0  0  0  0  0  0  0  0
   -0.0669    1.6977    0.0303 H   0  0  0  0  0  0  0  0  0  0  0  0
   -0.5024    1.1445    1.6787 H   0  0  0  0  0  0  0  0  0  0  0  0
   -5.8886    0.6193   -1.3769 H   0  0  0  0  0  0  0  0  0  0  0  0
   -3.1987    4.2402    1.1960 H   0  0  0  0  0  0  0  0  0  0  0  0
   -5.4697    3.3141   -0.0710 H   0  0  0  0  0  0  0  0  0  0  0  0
   -5.8789   -1.6977   -2.3468 H   0  0  0  0  0  0  0  0  0  0  0  0
   -4.6528   -3.7937   -2.7707 H   0  0  0  0  0  0  0  0  0  0  0  0
  1  2  1  0
  2  3  2  0
  3  4  1  0
  4  5  1  0
  5  6  1  0
  6  7  1  0
  5  8  1  0
  5  9  1  0
  3 10  1  0
 10 11  1  0
 11 12  1  0
 12 13  1  0
 13 14  2  0
 14 15  1  0
 15 16  2  0
 16 17  1  0
 17 18  1  0
 18 19  1  0
 19 20  2  0
 14 21  1  0
 21 22  2  0
 22 23  1  0
 23 24  2  0
 23 25  1  0
  7  2  1  0
 17 12  2  0
 25 13  1  0
 20 16  1  0
  1 26  1  0
  1 27  1  0
  1 28  1  0
  4 29  1  0
  4 30  1  0
  6 31  1  0
  6 32  1  0
  7 33  1  0
  7 34  1  0
  8 35  1  0
  8 36  1  0
  8 37  1  0
  9 38  1  0
  9 39  1  0
  9 40  1  0
 10 41  1  0
 10 42  1  0
 15 43  1  0
 19 44  1  0
 20 45  1  0
 21 46  1  0
 22 47  1  0
M  END
>  <Name>  (625) 
Iliensin

>  <PubChem ID>  (625) 
349112833

>  <CDB ID>  (625) 
CDB0625

>  <Smiles>  (625) 
CC1=C(CC(CC1)(C)C)COC2=C3C(=CC4=C2OC=C4)C=CC(=O)O3

>  <Chemical class>  (625) 
7,8-Dioxygenated Coumarins

>  <Natural source>  (625) 
Seseli iliense

>  <Molecular Formula>  (625) 
C21H22O4

>  <InChI-Key>  (625) 
XCSZAOTVVIRTGB-UHFFFAOYSA-N

>  <Total Molweight>  (625) 
338.402

>  <cLogP>  (625) 
4.5659

>  <cLogS>  (625) 
-5.37

>  <H-Acceptors>  (625) 
4

>  <H-Donors>  (625) 
0

>  <Rotatable Bonds>  (625) 
3

>  <Polar Surface Area>  (625) 
48.67

$$$$
CDB0626
     RDKit          3D

 54 57  0  0  0  0  0  0  0  0999 V2000
    1.0282    2.6620   -0.6887 C   0  0  0  0  0  0  0  0  0  0  0  0
    0.6664    1.6638    0.4259 C   0  0  0  0  0  0  0  0  0  0  0  0
    0.0281    0.3541   -0.1008 C   0  0  0  0  0  0  0  0  0  0  0  0
    1.0520   -0.4322   -0.9218 C   0  0  0  0  0  0  0  0  0  0  0  0
    2.3995   -0.4488   -0.2609 C   0  0  0  0  0  0  0  0  0  0  0  0
    2.7151    0.4630    0.7555 C   0  0  0  0  0  0  0  0  0  0  0  0
    1.8369    1.4039    1.2189 O   0  0  0  0  0  0  0  0  0  0  0  0
    3.9739    0.4158    1.3599 C   0  0  0  0  0  0  0  0  0  0  0  0
    4.9142   -0.5208    0.9351 C   0  0  0  0  0  0  0  0  0  0  0  0
    4.6271   -1.4213   -0.0854 C   0  0  0  0  0  0  0  0  0  0  0  0
    3.3660   -1.3811   -0.6852 C   0  0  0  0  0  0  0  0  0  0  0  0
    5.6462   -2.3749   -0.4915 C   0  0  0  0  0  0  0  0  0  0  0  0
    6.8346   -2.3674    0.1200 C   0  0  0  0  0  0  0  0  0  0  0  0
    7.1615   -1.4220    1.2016 C   0  0  0  0  0  0  0  0  0  0  0  0
    8.2620   -1.4396    1.7395 O   0  0  0  0  0  0  0  0  0  0  0  0
    6.1718   -0.5225    1.5731 O   0  0  0  0  0  0  0  0  0  0  0  0
    4.2845    1.2957    2.3623 O   0  0  0  0  0  0  0  0  0  0  0  0
   -1.1312    0.6692   -0.8902 O   0  0  0  0  0  0  0  0  0  0  0  0
   -2.0294   -0.4324   -1.0683 C   0  0  0  0  0  0  0  0  0  0  0  0
   -3.1481    0.0345   -2.0328 C   0  0  0  0  0  0  0  0  0  0  0  0
   -4.4257   -0.7317   -1.7242 C   0  0  0  0  0  0  0  0  0  0  0  0
   -4.8881   -0.4598   -0.2807 C   0  0  0  0  0  0  0  0  0  0  0  0
   -3.6821   -0.2184    0.6601 C   0  0  0  0  0  0  0  0  0  0  0  0
   -2.5268   -0.9206    0.1769 O   0  0  0  0  0  0  0  0  0  0  0  0
   -3.9385   -0.6299    2.1188 C   0  0  0  0  0  0  0  0  0  0  0  0
   -4.2285   -2.0192    2.2605 O   0  0  0  0  0  0  0  0  0  0  0  0
   -5.7038   -1.5715    0.1311 O   0  0  0  0  0  0  0  0  0  0  0  0
   -5.4773   -0.3459   -2.6220 O   0  0  0  0  0  0  0  0  0  0  0  0
   -3.4334    1.4434   -1.8770 O   0  0  0  0  0  0  0  0  0  0  0  0
   -0.3268    2.3601    1.3743 C   0  0  0  0  0  0  0  0  0  0  0  0
    1.7770    2.2547   -1.3756 H   0  0  0  0  0  0  0  0  0  0  0  0
    1.4742    3.5685   -0.2626 H   0  0  0  0  0  0  0  0  0  0  0  0
    0.1506    2.9549   -1.2739 H   0  0  0  0  0  0  0  0  0  0  0  0
   -0.2575   -0.2510    0.7711 H   0  0  0  0  0  0  0  0  0  0  0  0
    0.6965   -1.4615   -1.0509 H   0  0  0  0  0  0  0  0  0  0  0  0
    1.1440   -0.0074   -1.9290 H   0  0  0  0  0  0  0  0  0  0  0  0
    3.1216   -2.0797   -1.4835 H   0  0  0  0  0  0  0  0  0  0  0  0
    5.4280   -3.0811   -1.2851 H   0  0  0  0  0  0  0  0  0  0  0  0
    7.6212   -3.0612   -0.1515 H   0  0  0  0  0  0  0  0  0  0  0  0
    5.1915    1.0938    2.6546 H   0  0  0  0  0  0  0  0  0  0  0  0
   -1.5016   -1.2678   -1.5404 H   0  0  0  0  0  0  0  0  0  0  0  0
   -2.8353   -0.0872   -3.0750 H   0  0  0  0  0  0  0  0  0  0  0  0
   -4.2672   -1.8058   -1.8782 H   0  0  0  0  0  0  0  0  0  0  0  0
   -5.5481    0.4149   -0.2321 H   0  0  0  0  0  0  0  0  0  0  0  0
   -3.4368    0.8515    0.6651 H   0  0  0  0  0  0  0  0  0  0  0  0
   -4.7752   -0.0621    2.5382 H   0  0  0  0  0  0  0  0  0  0  0  0
   -3.0482   -0.4300    2.7238 H   0  0  0  0  0  0  0  0  0  0  0  0
   -4.9017   -2.2196    1.5748 H   0  0  0  0  0  0  0  0  0  0  0  0
   -6.3803   -1.6746   -0.5690 H   0  0  0  0  0  0  0  0  0  0  0  0
   -5.3979    0.6254   -2.7193 H   0  0  0  0  0  0  0  0  0  0  0  0
   -2.5652    1.8542   -1.6772 H   0  0  0  0  0  0  0  0  0  0  0  0
   -0.5912    1.7020    2.2102 H   0  0  0  0  0  0  0  0  0  0  0  0
   -1.2481    2.6554    0.8619 H   0  0  0  0  0  0  0  0  0  0  0  0
    0.1219    3.2558    1.8199 H   0  0  0  0  0  0  0  0  0  0  0  0
  1  2  1  0
  2  3  1  0
  3  4  1  0
  4  5  1  0
  5  6  2  0
  6  7  1  0
  6  8  1  0
  8  9  2  0
  9 10  1  0
 10 11  2  0
 10 12  1  0
 12 13  2  0
 13 14  1  0
 14 15  2  0
 14 16  1  0
  8 17  1  0
  3 18  1  0
 18 19  1  0
 19 20  1  0
 20 21  1  0
 21 22  1  0
 22 23  1  0
 23 24  1  0
 23 25  1  0
 25 26  1  0
 22 27  1  0
 21 28  1  0
 20 29  1  0
  2 30  1  0
  7  2  1  0
 11  5  1  0
 16  9  1  0
 24 19  1  0
  1 31  1  0
  1 32  1  0
  1 33  1  0
  3 34  1  0
  4 35  1  0
  4 36  1  0
 11 37  1  0
 12 38  1  0
 13 39  1  0
 17 40  1  0
 19 41  1  0
 20 42  1  0
 21 43  1  0
 22 44  1  0
 23 45  1  0
 25 46  1  0
 25 47  1  0
 26 48  1  0
 27 49  1  0
 28 50  1  0
 29 51  1  0
 30 52  1  0
 30 53  1  0
 30 54  1  0
M  END
>  <Name>  (626) 
Seseloside

>  <PubChem ID>  (626) 
157904

>  <CDB ID>  (626) 
CDB0626

>  <Smiles>  (626) 
CC1(C(CC2=C(O1)C(=C3C(=C2)C=CC(=O)O3)O)OC4C(C(C(C(O4)CO)O)O)O)C

>  <Chemical class>  (626) 
7,8-Dioxygenated Coumarins

>  <Natural source>  (626) 
Seseli peucedanoides

>  <Molecular Formula>  (626) 
C20H24O10

>  <InChI-Key>  (626) 
DJNJDDXGDIUVGC-UHFFFAOYSA-N

>  <Total Molweight>  (626) 
424.401

>  <cLogP>  (626) 
-0.347

>  <cLogS>  (626) 
-2.499

>  <H-Acceptors>  (626) 
10

>  <H-Donors>  (626) 
5

>  <Rotatable Bonds>  (626) 
3

>  <Polar Surface Area>  (626) 
155.14

$$$$
CDB0627
     RDKit          3D

 30 32  0  0  0  0  0  0  0  0999 V2000
   -3.3905   -0.3139   -1.4022 C   0  0  0  0  0  0  0  0  0  0  0  0
   -2.6105    0.1174   -0.1547 C   0  0  0  0  0  0  0  0  0  0  0  0
   -2.3783   -1.0868    0.7295 C   0  0  0  0  0  0  0  0  0  0  0  0
   -1.1651   -1.5304    1.0693 C   0  0  0  0  0  0  0  0  0  0  0  0
   -0.0108   -0.8111    0.5574 C   0  0  0  0  0  0  0  0  0  0  0  0
   -0.1977    0.3049   -0.2616 C   0  0  0  0  0  0  0  0  0  0  0  0
   -1.4239    0.7885   -0.6309 O   0  0  0  0  0  0  0  0  0  0  0  0
    0.9106    0.9980   -0.7549 C   0  0  0  0  0  0  0  0  0  0  0  0
    2.1973    0.5782   -0.4315 C   0  0  0  0  0  0  0  0  0  0  0  0
    2.3997   -0.5334    0.3844 C   0  0  0  0  0  0  0  0  0  0  0  0
    1.2902   -1.2286    0.8793 C   0  0  0  0  0  0  0  0  0  0  0  0
    3.7602   -0.9396    0.6988 C   0  0  0  0  0  0  0  0  0  0  0  0
    4.7858   -0.2423    0.2014 C   0  0  0  0  0  0  0  0  0  0  0  0
    4.5979    0.9363   -0.6634 C   0  0  0  0  0  0  0  0  0  0  0  0
    5.5673    1.5473   -1.0984 O   0  0  0  0  0  0  0  0  0  0  0  0
    3.2919    1.3019   -0.9473 O   0  0  0  0  0  0  0  0  0  0  0  0
    0.7268    2.0917   -1.5575 O   0  0  0  0  0  0  0  0  0  0  0  0
   -3.4157    1.1666    0.6210 C   0  0  0  0  0  0  0  0  0  0  0  0
   -2.8116   -1.0322   -1.9953 H   0  0  0  0  0  0  0  0  0  0  0  0
   -4.3516   -0.7740   -1.1474 H   0  0  0  0  0  0  0  0  0  0  0  0
   -3.5822    0.5431   -2.0586 H   0  0  0  0  0  0  0  0  0  0  0  0
   -3.2554   -1.6107    1.1018 H   0  0  0  0  0  0  0  0  0  0  0  0
   -1.0287   -2.3974    1.7054 H   0  0  0  0  0  0  0  0  0  0  0  0
    1.4360   -2.0977    1.5171 H   0  0  0  0  0  0  0  0  0  0  0  0
    3.9250   -1.8035    1.3331 H   0  0  0  0  0  0  0  0  0  0  0  0
    5.8143   -0.5104    0.4105 H   0  0  0  0  0  0  0  0  0  0  0  0
   -0.2398    2.1943   -1.6448 H   0  0  0  0  0  0  0  0  0  0  0  0
   -3.6079    2.0492   -0.0004 H   0  0  0  0  0  0  0  0  0  0  0  0
   -4.3780    0.7731    0.9668 H   0  0  0  0  0  0  0  0  0  0  0  0
   -2.8552    1.5214    1.4943 H   0  0  0  0  0  0  0  0  0  0  0  0
  1  2  1  0
  2  3  1  0
  3  4  2  0
  4  5  1  0
  5  6  2  0
  6  7  1  0
  6  8  1  0
  8  9  2  0
  9 10  1  0
 10 11  2  0
 10 12  1  0
 12 13  2  0
 13 14  1  0
 14 15  2  0
 14 16  1  0
  8 17  1  0
  2 18  1  0
  7  2  1  0
 11  5  1  0
 16  9  1  0
  1 19  1  0
  1 20  1  0
  1 21  1  0
  3 22  1  0
  4 23  1  0
 11 24  1  0
 12 25  1  0
 13 26  1  0
 17 27  1  0
 18 28  1  0
 18 29  1  0
 18 30  1  0
M  END
>  <Name>  (627) 
Demethylluvangetin

>  <PubChem ID>  (627) 
85917591

>  <CDB ID>  (627) 
CDB0627

>  <Smiles>  (627) 
CC1(C=CC2=C(O1)C(=C3C(=C2)C=CC(=O)O3)O)C

>  <Chemical class>  (627) 
7,8-Dioxygenated Coumarins

>  <Natural source>  (627) 
Chloroxylon swietenia

>  <Molecular Formula>  (627) 
C14H12O4

>  <InChI-Key>  (627) 
IJOQSHYTDUMDRC-UHFFFAOYSA-N

>  <Total Molweight>  (627) 
244.245

>  <cLogP>  (627) 
2.1784

>  <cLogS>  (627) 
-3.333

>  <H-Acceptors>  (627) 
4

>  <H-Donors>  (627) 
1

>  <Rotatable Bonds>  (627) 
0

>  <Polar Surface Area>  (627) 
55.76

$$$$
CDB0628
     RDKit          3D

 33 35  0  0  0  0  0  0  0  0999 V2000
   -3.1461   -0.4993    1.7271 C   0  0  0  0  0  0  0  0  0  0  0  0
   -2.6800   -0.0514    0.3371 C   0  0  0  0  0  0  0  0  0  0  0  0
   -2.5588    1.4549    0.3032 C   0  0  0  0  0  0  0  0  0  0  0  0
   -1.3890    2.0922    0.2058 C   0  0  0  0  0  0  0  0  0  0  0  0
   -0.1793    1.2866    0.1389 C   0  0  0  0  0  0  0  0  0  0  0  0
   -0.2743   -0.1085    0.0621 C   0  0  0  0  0  0  0  0  0  0  0  0
   -1.4693   -0.7744    0.0429 O   0  0  0  0  0  0  0  0  0  0  0  0
    0.8919   -0.8781   -0.0284 C   0  0  0  0  0  0  0  0  0  0  0  0
    2.1389   -0.2502   -0.0028 C   0  0  0  0  0  0  0  0  0  0  0  0
    2.2461    1.1365    0.0786 C   0  0  0  0  0  0  0  0  0  0  0  0
    1.0807    1.9055    0.1443 C   0  0  0  0  0  0  0  0  0  0  0  0
    3.5670    1.7446    0.0956 C   0  0  0  0  0  0  0  0  0  0  0  0
    4.6511    0.9662    0.0302 C   0  0  0  0  0  0  0  0  0  0  0  0
    4.5668   -0.5017   -0.0627 C   0  0  0  0  0  0  0  0  0  0  0  0
    5.5844   -1.1809   -0.1336 O   0  0  0  0  0  0  0  0  0  0  0  0
    3.2964   -1.0555   -0.0724 O   0  0  0  0  0  0  0  0  0  0  0  0
    0.8268   -2.2484   -0.0647 O   0  0  0  0  0  0  0  0  0  0  0  0
    0.6611   -2.6953   -1.4098 C   0  0  0  0  0  0  0  0  0  0  0  0
   -3.6999   -0.4975   -0.7176 C   0  0  0  0  0  0  0  0  0  0  0  0
   -4.1068   -0.0500    2.0018 H   0  0  0  0  0  0  0  0  0  0  0  0
   -3.2500   -1.5898    1.7710 H   0  0  0  0  0  0  0  0  0  0  0  0
   -2.4093   -0.2296    2.4932 H   0  0  0  0  0  0  0  0  0  0  0  0
   -3.4748    2.0352    0.3796 H   0  0  0  0  0  0  0  0  0  0  0  0
   -1.3250    3.1740    0.1938 H   0  0  0  0  0  0  0  0  0  0  0  0
    1.1490    2.9894    0.2063 H   0  0  0  0  0  0  0  0  0  0  0  0
    3.6551    2.8234    0.1634 H   0  0  0  0  0  0  0  0  0  0  0  0
    5.6526    1.3789    0.0411 H   0  0  0  0  0  0  0  0  0  0  0  0
    1.4910   -2.3641   -2.0440 H   0  0  0  0  0  0  0  0  0  0  0  0
   -0.2935   -2.3596   -1.8287 H   0  0  0  0  0  0  0  0  0  0  0  0
    0.6590   -3.7894   -1.4007 H   0  0  0  0  0  0  0  0  0  0  0  0
   -3.8099   -1.5884   -0.7175 H   0  0  0  0  0  0  0  0  0  0  0  0
   -4.6869   -0.0528   -0.5496 H   0  0  0  0  0  0  0  0  0  0  0  0
   -3.3651   -0.2223   -1.7252 H   0  0  0  0  0  0  0  0  0  0  0  0
  1  2  1  0
  2  3  1  0
  3  4  2  0
  4  5  1  0
  5  6  2  0
  6  7  1  0
  6  8  1  0
  8  9  2  0
  9 10  1  0
 10 11  2  0
 10 12  1  0
 12 13  2  0
 13 14  1  0
 14 15  2  0
 14 16  1  0
  8 17  1  0
 17 18  1  0
  2 19  1  0
  7  2  1  0
 11  5  1  0
 16  9  1  0
  1 20  1  0
  1 21  1  0
  1 22  1  0
  3 23  1  0
  4 24  1  0
 11 25  1  0
 12 26  1  0
 13 27  1  0
 18 28  1  0
 18 29  1  0
 18 30  1  0
 19 31  1  0
 19 32  1  0
 19 33  1  0
M  END
>  <Name>  (628) 
Luvangetin

>  <PubChem ID>  (628) 
343582

>  <CDB ID>  (628) 
CDB0628

>  <Smiles>  (628) 
CC1(C=CC2=C(O1)C(=C3C(=C2)C=CC(=O)O3)OC)C

>  <Chemical class>  (628) 
7,8-Dioxygenated Coumarins

>  <Natural source>  (628) 
Luvanga scandens

>  <Molecular Formula>  (628) 
C15H14O4

>  <InChI-Key>  (628) 
XYPWCJWXFYYGPA-UHFFFAOYSA-N

>  <Total Molweight>  (628) 
258.272

>  <cLogP>  (628) 
2.4541

>  <cLogS>  (628) 
-3.647

>  <H-Acceptors>  (628) 
4

>  <H-Donors>  (628) 
0

>  <Rotatable Bonds>  (628) 
1

>  <Polar Surface Area>  (628) 
44.76

$$$$
CDB0629
     RDKit          3D

 41 45  0  0  0  0  0  0  0  0999 V2000
   -3.0934   -2.8680   -0.6478 C   0  0  0  0  0  0  0  0  0  0  0  0
   -2.4829   -1.6554   -1.0915 O   0  0  0  0  0  0  0  0  0  0  0  0
   -3.0256   -0.5476   -0.4860 C   0  0  0  0  0  0  0  0  0  0  0  0
   -4.3952   -0.2741   -0.5806 C   0  0  0  0  0  0  0  0  0  0  0  0
   -4.8558    0.8822    0.0102 C   0  0  0  0  0  0  0  0  0  0  0  0
   -4.0127    1.7528    0.6595 C   0  0  0  0  0  0  0  0  0  0  0  0
   -2.6567    1.5212    0.7542 C   0  0  0  0  0  0  0  0  0  0  0  0
   -2.1452    0.3517    0.1667 C   0  0  0  0  0  0  0  0  0  0  0  0
   -0.6995    0.0674    0.2487 C   0  0  0  0  0  0  0  0  0  0  0  0
    0.1487    0.8164   -0.4733 C   0  0  0  0  0  0  0  0  0  0  0  0
    1.5800    0.5542   -0.4488 C   0  0  0  0  0  0  0  0  0  0  0  0
    2.0671   -0.4983    0.3252 C   0  0  0  0  0  0  0  0  0  0  0  0
    3.4322   -0.8292    0.4055 C   0  0  0  0  0  0  0  0  0  0  0  0
    4.2867   -0.0183   -0.3560 C   0  0  0  0  0  0  0  0  0  0  0  0
    3.8456    1.0449   -1.1460 C   0  0  0  0  0  0  0  0  0  0  0  0
    2.4691    1.3382   -1.1958 C   0  0  0  0  0  0  0  0  0  0  0  0
    5.0067    1.6018   -1.7472 C   0  0  0  0  0  0  0  0  0  0  0  0
    6.0706    0.8596   -1.2960 C   0  0  0  0  0  0  0  0  0  0  0  0
    5.6469   -0.1180   -0.4575 O   0  0  0  0  0  0  0  0  0  0  0  0
    3.7665   -1.8987    1.2169 O   0  0  0  0  0  0  0  0  0  0  0  0
    5.1439   -2.2399    1.2824 C   0  0  0  0  0  0  0  0  0  0  0  0
    1.1615   -1.2865    1.0789 O   0  0  0  0  0  0  0  0  0  0  0  0
   -0.2087   -1.0547    1.0957 C   0  0  0  0  0  0  0  0  0  0  0  0
   -0.9606   -1.7327    1.7894 O   0  0  0  0  0  0  0  0  0  0  0  0
   -4.6694    2.8311    1.1651 O   0  0  0  0  0  0  0  0  0  0  0  0
   -6.0255    2.5330    0.7722 C   0  0  0  0  0  0  0  0  0  0  0  0
   -6.1481    1.3063    0.0226 O   0  0  0  0  0  0  0  0  0  0  0  0
   -3.2697   -2.8683    0.4339 H   0  0  0  0  0  0  0  0  0  0  0  0
   -2.4084   -3.6894   -0.8780 H   0  0  0  0  0  0  0  0  0  0  0  0
   -4.0273   -3.0472   -1.1895 H   0  0  0  0  0  0  0  0  0  0  0  0
   -5.0764   -0.9286   -1.1098 H   0  0  0  0  0  0  0  0  0  0  0  0
   -2.0174    2.2251    1.2763 H   0  0  0  0  0  0  0  0  0  0  0  0
   -0.2097    1.6224   -1.1070 H   0  0  0  0  0  0  0  0  0  0  0  0
    2.1132    2.1616   -1.8087 H   0  0  0  0  0  0  0  0  0  0  0  0
    5.0588    2.4413   -2.4258 H   0  0  0  0  0  0  0  0  0  0  0  0
    7.1374    0.8969   -1.4689 H   0  0  0  0  0  0  0  0  0  0  0  0
    5.5249   -2.5412    0.3015 H   0  0  0  0  0  0  0  0  0  0  0  0
    5.2402   -3.1021    1.9496 H   0  0  0  0  0  0  0  0  0  0  0  0
    5.7334   -1.4249    1.7143 H   0  0  0  0  0  0  0  0  0  0  0  0
   -6.6438    2.4568    1.6742 H   0  0  0  0  0  0  0  0  0  0  0  0
   -6.4012    3.3585    0.1568 H   0  0  0  0  0  0  0  0  0  0  0  0
  1  2  1  0
  2  3  1  0
  3  4  1  0
  4  5  2  0
  5  6  1  0
  6  7  2  0
  7  8  1  0
  8  9  1  0
  9 10  2  0
 10 11  1  0
 11 12  2  0
 12 13  1  0
 13 14  2  0
 14 15  1  0
 15 16  2  0
 15 17  1  0
 17 18  2  0
 18 19  1  0
 13 20  1  0
 20 21  1  0
 12 22  1  0
 22 23  1  0
 23 24  2  0
  6 25  1  0
 25 26  1  0
 26 27  1  0
  8  3  2  0
 27  5  1  0
 23  9  1  0
 16 11  1  0
 19 14  1  0
  1 28  1  0
  1 29  1  0
  1 30  1  0
  4 31  1  0
  7 32  1  0
 10 33  1  0
 16 34  1  0
 17 35  1  0
 18 36  1  0
 21 37  1  0
 21 38  1  0
 21 39  1  0
 26 40  1  0
 26 41  1  0
M  END
>  <Name>  (629) 
Neofolin

>  <PubChem ID>  (629) 
44260104

>  <CDB ID>  (629) 
CDB0629

>  <Smiles>  (629) 
COC1=CC2=C(C=C1C3=CC4=C(C(=C5C(=C4)C=CO5)OC)OC3=O)OCO2

>  <Chemical class>  (629) 
7,8-Dioxygenated Coumarins

>  <Natural source>  (629) 
Neorautenia jicifolia

>  <Molecular Formula>  (629) 
C20H14O7

>  <InChI-Key>  (629) 
SUNDAONUHLDQBY-UHFFFAOYSA-N

>  <Total Molweight>  (629) 
366.324

>  <cLogP>  (629) 
3.1756

>  <cLogS>  (629) 
-5.233

>  <H-Acceptors>  (629) 
7

>  <H-Donors>  (629) 
0

>  <Rotatable Bonds>  (629) 
3

>  <Polar Surface Area>  (629) 
76.36

$$$$
CDB0630
     RDKit          3D

 37 39  0  0  0  0  0  0  0  0999 V2000
   -2.7341   -0.2930   -1.4327 C   0  0  0  0  0  0  0  0  0  0  0  0
   -1.9143    0.4817   -0.3719 C   0  0  0  0  0  0  0  0  0  0  0  0
   -1.9605    1.9619   -0.8297 C   0  0  0  0  0  0  0  0  0  0  0  0
   -2.6857    0.1677    0.9172 C   0  0  0  0  0  0  0  0  0  0  0  0
   -3.5692    0.9518    1.5537 C   0  0  0  0  0  0  0  0  0  0  0  0
   -0.4126    0.0497   -0.2393 C   0  0  0  0  0  0  0  0  0  0  0  0
    0.4069    0.5280    0.8553 C   0  0  0  0  0  0  0  0  0  0  0  0
   -0.0524    1.4709    1.8879 C   0  0  0  0  0  0  0  0  0  0  0  0
    0.7233    1.8701    2.8993 C   0  0  0  0  0  0  0  0  0  0  0  0
    2.0995    1.4036    3.0589 C   0  0  0  0  0  0  0  0  0  0  0  0
    2.7871    1.7691    4.0038 O   0  0  0  0  0  0  0  0  0  0  0  0
    2.5521    0.5465    2.0797 O   0  0  0  0  0  0  0  0  0  0  0  0
    1.7448    0.1089    0.9899 C   0  0  0  0  0  0  0  0  0  0  0  0
    2.3830   -0.7557    0.0983 C   0  0  0  0  0  0  0  0  0  0  0  0
    1.6019   -1.1696   -0.9793 C   0  0  0  0  0  0  0  0  0  0  0  0
    0.2620   -0.8077   -1.1834 C   0  0  0  0  0  0  0  0  0  0  0  0
   -0.0833   -1.4681   -2.4103 C   0  0  0  0  0  0  0  0  0  0  0  0
    1.0186   -2.1572   -2.8459 C   0  0  0  0  0  0  0  0  0  0  0  0
    2.0382   -1.9807   -1.9860 O   0  0  0  0  0  0  0  0  0  0  0  0
    3.7052   -1.0652    0.3670 O   0  0  0  0  0  0  0  0  0  0  0  0
    4.3020   -2.0834   -0.4230 C   0  0  0  0  0  0  0  0  0  0  0  0
   -2.4270   -0.0316   -2.4504 H   0  0  0  0  0  0  0  0  0  0  0  0
   -3.8014   -0.0365   -1.3795 H   0  0  0  0  0  0  0  0  0  0  0  0
   -2.6645   -1.3789   -1.2983 H   0  0  0  0  0  0  0  0  0  0  0  0
   -1.5345    2.6571   -0.1022 H   0  0  0  0  0  0  0  0  0  0  0  0
   -1.3971    2.0967   -1.7616 H   0  0  0  0  0  0  0  0  0  0  0  0
   -2.9881    2.2923   -1.0242 H   0  0  0  0  0  0  0  0  0  0  0  0
   -2.5012   -0.8219    1.3393 H   0  0  0  0  0  0  0  0  0  0  0  0
   -4.0615    0.6033    2.4576 H   0  0  0  0  0  0  0  0  0  0  0  0
   -3.8336    1.9428    1.2008 H   0  0  0  0  0  0  0  0  0  0  0  0
   -1.0493    1.8817    1.8461 H   0  0  0  0  0  0  0  0  0  0  0  0
    0.3698    2.5651    3.6510 H   0  0  0  0  0  0  0  0  0  0  0  0
   -1.0158   -1.4667   -2.9493 H   0  0  0  0  0  0  0  0  0  0  0  0
    1.2229   -2.7838   -3.7030 H   0  0  0  0  0  0  0  0  0  0  0  0
    4.4502   -1.7438   -1.4526 H   0  0  0  0  0  0  0  0  0  0  0  0
    3.7273   -3.0143   -0.3801 H   0  0  0  0  0  0  0  0  0  0  0  0
    5.2912   -2.2908   -0.0030 H   0  0  0  0  0  0  0  0  0  0  0  0
  1  2  1  0
  2  3  1  0
  2  4  1  0
  4  5  2  0
  2  6  1  0
  6  7  1  0
  7  8  1  0
  8  9  2  0
  9 10  1  0
 10 11  2  0
 10 12  1  0
 12 13  1  0
 13 14  1  0
 14 15  2  0
 15 16  1  0
 16 17  1  0
 17 18  2  0
 18 19  1  0
 14 20  1  0
 20 21  1  0
 16  6  2  0
 13  7  2  0
 19 15  1  0
  1 22  1  0
  1 23  1  0
  1 24  1  0
  3 25  1  0
  3 26  1  0
  3 27  1  0
  4 28  1  0
  5 29  1  0
  5 30  1  0
  8 31  1  0
  9 32  1  0
 17 33  1  0
 18 34  1  0
 21 35  1  0
 21 36  1  0
 21 37  1  0
M  END
>  <Name>  (630) 
Benahorin

>  <PubChem ID>  (630) 
182169

>  <CDB ID>  (630) 
CDB0630

>  <Smiles>  (630) 
CC(C)(C=C)C1=C2C=CC(=O)OC2=C(C3=C1C=CO3)OC

>  <Chemical class>  (630) 
7,8-Dioxygenated Coumarins

>  <Natural source>  (630) 
Ruta pinnata

>  <Molecular Formula>  (630) 
C17H16O4

>  <InChI-Key>  (630) 
IFAIUWDLBBYPMZ-UHFFFAOYSA-N

>  <Total Molweight>  (630) 
284.31

>  <cLogP>  (630) 
3.7298

>  <cLogS>  (630) 
-4.916

>  <H-Acceptors>  (630) 
4

>  <H-Donors>  (630) 
0

>  <Rotatable Bonds>  (630) 
3

>  <Polar Surface Area>  (630) 
48.67

$$$$
CDB0631
     RDKit          3D

 34 36  0  0  0  0  0  0  0  0999 V2000
   -3.4100   -1.5289    0.5074 C   0  0  0  0  0  0  0  0  0  0  0  0
   -2.9596   -0.4063   -0.3859 C   0  0  0  0  0  0  0  0  0  0  0  0
   -1.9367    0.4345   -0.1320 C   0  0  0  0  0  0  0  0  0  0  0  0
   -1.0060    0.4379    1.0517 C   0  0  0  0  0  0  0  0  0  0  0  0
    0.4494    0.5659    0.6383 C   0  0  0  0  0  0  0  0  0  0  0  0
    1.2053   -0.5498    0.1743 C   0  0  0  0  0  0  0  0  0  0  0  0
    0.6501   -1.8994    0.0576 C   0  0  0  0  0  0  0  0  0  0  0  0
    1.3992   -2.9162   -0.3785 C   0  0  0  0  0  0  0  0  0  0  0  0
    2.8060   -2.7496   -0.7617 C   0  0  0  0  0  0  0  0  0  0  0  0
    3.4731   -3.6994   -1.1521 O   0  0  0  0  0  0  0  0  0  0  0  0
    3.3268   -1.4711   -0.6577 O   0  0  0  0  0  0  0  0  0  0  0  0
    2.5459   -0.3812   -0.2002 C   0  0  0  0  0  0  0  0  0  0  0  0
    3.1987    0.8505   -0.1510 C   0  0  0  0  0  0  0  0  0  0  0  0
    2.4419    1.9278    0.2917 C   0  0  0  0  0  0  0  0  0  0  0  0
    1.1081    1.8289    0.6803 C   0  0  0  0  0  0  0  0  0  0  0  0
    0.7285    3.1543    1.0479 C   0  0  0  0  0  0  0  0  0  0  0  0
    1.8347    3.9498    0.8664 C   0  0  0  0  0  0  0  0  0  0  0  0
    2.8774    3.2143    0.4092 O   0  0  0  0  0  0  0  0  0  0  0  0
    4.5101    0.9859   -0.5238 O   0  0  0  0  0  0  0  0  0  0  0  0
   -3.7724   -0.2610   -1.6474 C   0  0  0  0  0  0  0  0  0  0  0  0
   -4.4740   -1.4183    0.7426 H   0  0  0  0  0  0  0  0  0  0  0  0
   -3.2669   -2.4903    0.0032 H   0  0  0  0  0  0  0  0  0  0  0  0
   -2.8760   -1.5696    1.4588 H   0  0  0  0  0  0  0  0  0  0  0  0
   -1.7338    1.2239   -0.8575 H   0  0  0  0  0  0  0  0  0  0  0  0
   -1.2784    1.2907    1.6852 H   0  0  0  0  0  0  0  0  0  0  0  0
   -1.1183   -0.4381    1.6962 H   0  0  0  0  0  0  0  0  0  0  0  0
   -0.3854   -2.0798    0.3186 H   0  0  0  0  0  0  0  0  0  0  0  0
    1.0000   -3.9188   -0.4737 H   0  0  0  0  0  0  0  0  0  0  0  0
   -0.2356    3.4902    1.4021 H   0  0  0  0  0  0  0  0  0  0  0  0
    2.0339    5.0029    1.0081 H   0  0  0  0  0  0  0  0  0  0  0  0
    4.8228    0.1045   -0.7975 H   0  0  0  0  0  0  0  0  0  0  0  0
   -4.8211   -0.0633   -1.4024 H   0  0  0  0  0  0  0  0  0  0  0  0
   -3.4182    0.5603   -2.2793 H   0  0  0  0  0  0  0  0  0  0  0  0
   -3.7198   -1.1809   -2.2389 H   0  0  0  0  0  0  0  0  0  0  0  0
  1  2  1  0
  2  3  2  3
  3  4  1  0
  4  5  1  0
  5  6  1  0
  6  7  1  0
  7  8  2  0
  8  9  1  0
  9 10  2  0
  9 11  1  0
 11 12  1  0
 12 13  1  0
 13 14  2  0
 14 15  1  0
 15 16  1  0
 16 17  2  0
 17 18  1  0
 13 19  1  0
  2 20  1  0
 15  5  2  0
 12  6  2  0
 18 14  1  0
  1 21  1  0
  1 22  1  0
  1 23  1  0
  3 24  1  0
  4 25  1  0
  4 26  1  0
  7 27  1  0
  8 28  1  0
 16 29  1  0
 17 30  1  0
 19 31  1  0
 20 32  1  0
 20 33  1  0
 20 34  1  0
M  END
>  <Name>  (631) 
Alloimperatorin

>  <PubChem ID>  (631) 
69502

>  <CDB ID>  (631) 
CDB0631

>  <Smiles>  (631) 
CC(=CCC1=C2C=CC(=O)OC2=C(C3=C1C=CO3)O)C

>  <Chemical class>  (631) 
7,8-Dioxygenated Coumarins

>  <Natural source>  (631) 
Aegle marmelos, Prangos ornata

>  <Molecular Formula>  (631) 
C16H14O4

>  <InChI-Key>  (631) 
KDXVVZMYSLWJMA-UHFFFAOYSA-N

>  <Total Molweight>  (631) 
270.283

>  <cLogP>  (631) 
3.6258

>  <cLogS>  (631) 
-4.172

>  <H-Acceptors>  (631) 
4

>  <H-Donors>  (631) 
1

>  <Rotatable Bonds>  (631) 
2

>  <Polar Surface Area>  (631) 
59.67

$$$$
CDB0632
     RDKit          3D

 42 44  0  0  0  0  0  0  0  0999 V2000
   -3.6092   -1.6386    0.2136 C   0  0  0  0  0  0  0  0  0  0  0  0
   -3.4122   -0.1464   -0.0723 C   0  0  0  0  0  0  0  0  0  0  0  0
   -4.3697    0.6730    0.8049 C   0  0  0  0  0  0  0  0  0  0  0  0
   -1.9317    0.2938    0.1506 C   0  0  0  0  0  0  0  0  0  0  0  0
   -0.9476   -0.3171   -0.8907 C   0  0  0  0  0  0  0  0  0  0  0  0
    0.5138   -0.0988   -0.4982 C   0  0  0  0  0  0  0  0  0  0  0  0
    1.1677   -0.9939    0.4029 C   0  0  0  0  0  0  0  0  0  0  0  0
    0.5076   -2.1654    0.9925 C   0  0  0  0  0  0  0  0  0  0  0  0
    1.1561   -2.9819    1.8276 C   0  0  0  0  0  0  0  0  0  0  0  0
    2.5554   -2.7686    2.2111 C   0  0  0  0  0  0  0  0  0  0  0  0
    3.1207   -3.5396    2.9765 O   0  0  0  0  0  0  0  0  0  0  0  0
    3.1696   -1.6620    1.6614 O   0  0  0  0  0  0  0  0  0  0  0  0
    2.5055   -0.7713    0.7710 C   0  0  0  0  0  0  0  0  0  0  0  0
    3.2714    0.3099    0.3110 C   0  0  0  0  0  0  0  0  0  0  0  0
    2.6037    1.1799   -0.5543 C   0  0  0  0  0  0  0  0  0  0  0  0
    1.2776    1.0148   -0.9632 C   0  0  0  0  0  0  0  0  0  0  0  0
    1.0175    2.1228   -1.8280 C   0  0  0  0  0  0  0  0  0  0  0  0
    2.1665    2.8683   -1.8891 C   0  0  0  0  0  0  0  0  0  0  0  0
    3.1283    2.3060   -1.1239 O   0  0  0  0  0  0  0  0  0  0  0  0
    4.5752    0.3889    0.7692 O   0  0  0  0  0  0  0  0  0  0  0  0
    5.3569    1.4738    0.2903 C   0  0  0  0  0  0  0  0  0  0  0  0
   -1.2187    0.2357   -2.1873 O   0  0  0  0  0  0  0  0  0  0  0  0
   -1.8652    1.7303    0.0563 O   0  0  0  0  0  0  0  0  0  0  0  0
   -3.7612    0.0814   -1.4508 O   0  0  0  0  0  0  0  0  0  0  0  0
   -4.6626   -1.9197    0.0973 H   0  0  0  0  0  0  0  0  0  0  0  0
   -3.0574   -2.2639   -0.4950 H   0  0  0  0  0  0  0  0  0  0  0  0
   -3.2961   -1.8973    1.2302 H   0  0  0  0  0  0  0  0  0  0  0  0
   -4.3614    1.7320    0.5247 H   0  0  0  0  0  0  0  0  0  0  0  0
   -4.1130    0.5867    1.8657 H   0  0  0  0  0  0  0  0  0  0  0  0
   -5.4048    0.3366    0.6740 H   0  0  0  0  0  0  0  0  0  0  0  0
   -1.6311    0.0305    1.1713 H   0  0  0  0  0  0  0  0  0  0  0  0
   -1.1108   -1.3904   -1.0096 H   0  0  0  0  0  0  0  0  0  0  0  0
   -0.5248   -2.3888    0.7595 H   0  0  0  0  0  0  0  0  0  0  0  0
    0.6785   -3.8495    2.2669 H   0  0  0  0  0  0  0  0  0  0  0  0
    0.0998    2.3462   -2.3518 H   0  0  0  0  0  0  0  0  0  0  0  0
    2.4454    3.7755   -2.4064 H   0  0  0  0  0  0  0  0  0  0  0  0
    5.4749    1.4287   -0.7970 H   0  0  0  0  0  0  0  0  0  0  0  0
    6.3547    1.3824    0.7307 H   0  0  0  0  0  0  0  0  0  0  0  0
    4.9434    2.4336    0.6157 H   0  0  0  0  0  0  0  0  0  0  0  0
   -2.1871    0.1358   -2.3195 H   0  0  0  0  0  0  0  0  0  0  0  0
   -1.8946    1.9300   -0.8998 H   0  0  0  0  0  0  0  0  0  0  0  0
   -4.7309   -0.0036   -1.5252 H   0  0  0  0  0  0  0  0  0  0  0  0
  1  2  1  0
  2  3  1  0
  2  4  1  0
  4  5  1  0
  5  6  1  0
  6  7  1  0
  7  8  1  0
  8  9  2  0
  9 10  1  0
 10 11  2  0
 10 12  1  0
 12 13  1  0
 13 14  1  0
 14 15  2  0
 15 16  1  0
 16 17  1  0
 17 18  2  0
 18 19  1  0
 14 20  1  0
 20 21  1  0
  5 22  1  0
  4 23  1  0
  2 24  1  0
 16  6  2  0
 13  7  2  0
 19 15  1  0
  1 25  1  0
  1 26  1  0
  1 27  1  0
  3 28  1  0
  3 29  1  0
  3 30  1  0
  4 31  1  0
  5 32  1  0
  8 33  1  0
  9 34  1  0
 17 35  1  0
 18 36  1  0
 21 37  1  0
 21 38  1  0
 21 39  1  0
 22 40  1  0
 23 41  1  0
 24 42  1  0
M  END
>  <Name>  (632) 
Thamontanin

>  <PubChem ID>  (632) 
71438820

>  <CDB ID>  (632) 
CDB0632

>  <Smiles>  (632) 
CC(C)(C(C(C1=C2C=CC(=O)OC2=C(C3=C1C=CO3)OC)O)O)O

>  <Chemical class>  (632) 
7,8-Dioxygenated Coumarins

>  <Natural source>  (632) 
Thamnosma montana

>  <Molecular Formula>  (632) 
C17H18O7

>  <InChI-Key>  (632) 
KKURXOIGLKTDKW-UHFFFAOYSA-N

>  <Total Molweight>  (632) 
334.323

>  <cLogP>  (632) 
0.8142

>  <cLogS>  (632) 
-3.353

>  <H-Acceptors>  (632) 
7

>  <H-Donors>  (632) 
3

>  <Rotatable Bonds>  (632) 
4

>  <Polar Surface Area>  (632) 
109.36

$$$$
CDB0633
     RDKit          3D

 28 30  0  0  0  0  0  0  0  0999 V2000
   -1.6928    2.6403    0.1100 C   0  0  0  0  0  0  0  0  0  0  0  0
   -1.3391    1.5052    0.9020 O   0  0  0  0  0  0  0  0  0  0  0  0
   -1.0599    0.4003    0.1145 C   0  0  0  0  0  0  0  0  0  0  0  0
   -2.0162   -0.3393   -0.4751 C   0  0  0  0  0  0  0  0  0  0  0  0
   -1.6473   -1.5211   -1.3110 C   0  0  0  0  0  0  0  0  0  0  0  0
   -2.4815   -2.1809   -1.9228 O   0  0  0  0  0  0  0  0  0  0  0  0
   -0.2998   -1.8529   -1.3767 O   0  0  0  0  0  0  0  0  0  0  0  0
    0.6919   -1.1164   -0.6995 C   0  0  0  0  0  0  0  0  0  0  0  0
    0.3500    0.0057    0.0535 C   0  0  0  0  0  0  0  0  0  0  0  0
    1.3658    0.7132    0.7240 C   0  0  0  0  0  0  0  0  0  0  0  0
    2.7002    0.2746    0.6137 C   0  0  0  0  0  0  0  0  0  0  0  0
    3.9551    0.7041    1.1206 C   0  0  0  0  0  0  0  0  0  0  0  0
    4.8939   -0.1744    0.6301 C   0  0  0  0  0  0  0  0  0  0  0  0
    4.3046   -1.1205   -0.1467 O   0  0  0  0  0  0  0  0  0  0  0  0
    2.9704   -0.8502   -0.1576 C   0  0  0  0  0  0  0  0  0  0  0  0
    2.0032   -1.5830   -0.8350 C   0  0  0  0  0  0  0  0  0  0  0  0
   -3.3509    0.0405   -0.3488 O   0  0  0  0  0  0  0  0  0  0  0  0
   -4.1926   -1.0134    0.1135 C   0  0  0  0  0  0  0  0  0  0  0  0
   -2.6674    2.5074   -0.3687 H   0  0  0  0  0  0  0  0  0  0  0  0
   -0.9249    2.8510   -0.6427 H   0  0  0  0  0  0  0  0  0  0  0  0
   -1.7604    3.5047    0.7771 H   0  0  0  0  0  0  0  0  0  0  0  0
    1.1354    1.5868    1.3273 H   0  0  0  0  0  0  0  0  0  0  0  0
    4.1509    1.5496    1.7645 H   0  0  0  0  0  0  0  0  0  0  0  0
    5.9666   -0.2603    0.7351 H   0  0  0  0  0  0  0  0  0  0  0  0
    2.2554   -2.4554   -1.4237 H   0  0  0  0  0  0  0  0  0  0  0  0
   -4.5466   -1.6201   -0.7243 H   0  0  0  0  0  0  0  0  0  0  0  0
   -5.0690   -0.5569    0.5835 H   0  0  0  0  0  0  0  0  0  0  0  0
   -3.6951   -1.6386    0.8633 H   0  0  0  0  0  0  0  0  0  0  0  0
  1  2  1  0
  2  3  1  0
  3  4  2  0
  4  5  1  0
  5  6  2  0
  5  7  1  0
  7  8  1  0
  8  9  2  0
  9 10  1  0
 10 11  2  0
 11 12  1  0
 12 13  2  0
 13 14  1  0
 14 15  1  0
 15 16  2  0
  4 17  1  0
 17 18  1  0
  9  3  1  0
 16  8  1  0
 15 11  1  0
  1 19  1  0
  1 20  1  0
  1 21  1  0
 10 22  1  0
 12 23  1  0
 13 24  1  0
 16 25  1  0
 18 26  1  0
 18 27  1  0
 18 28  1  0
M  END
>  <Name>  (633) 
Halkendin

>  <PubChem ID>  (633) 
609108

>  <CDB ID>  (633) 
CDB0633

>  <Smiles>  (633) 
COC1=C(C(=O)OC2=C1C=C3C=COC3=C2)OC

>  <Chemical class>  (633) 
3,4,7-Trioxygenated Coumarins

>  <Natural source>  (633) 
Halfordia kendack

>  <Molecular Formula>  (633) 
C13H10O5

>  <InChI-Key>  (633) 
NYELECLICIMRBA-UHFFFAOYSA-N

>  <Total Molweight>  (633) 
246.217

>  <cLogP>  (633) 
1.9228

>  <cLogS>  (633) 
-3.249

>  <H-Acceptors>  (633) 
5

>  <H-Donors>  (633) 
0

>  <Rotatable Bonds>  (633) 
2

>  <Polar Surface Area>  (633) 
57.9

$$$$
CDB0634
     RDKit          3D

 59 62  0  0  0  0  0  0  0  0999 V2000
    3.5418   -1.0349   -2.9451 O   0  0  0  0  0  0  0  0  0  0  0  0
    3.1718   -1.2145   -1.7946 C   0  0  0  0  0  0  0  0  0  0  0  0
    1.7730   -0.9934   -1.3754 C   0  0  0  0  0  0  0  0  0  0  0  0
    1.3214   -1.1701   -0.1239 C   0  0  0  0  0  0  0  0  0  0  0  0
   -0.0760   -0.9481    0.2702 C   0  0  0  0  0  0  0  0  0  0  0  0
   -0.8074    0.1632   -0.1749 C   0  0  0  0  0  0  0  0  0  0  0  0
   -2.1257    0.3535    0.2482 C   0  0  0  0  0  0  0  0  0  0  0  0
   -2.8188    1.4570   -0.1700 O   0  0  0  0  0  0  0  0  0  0  0  0
   -2.7285   -0.5654    1.1125 C   0  0  0  0  0  0  0  0  0  0  0  0
   -4.0082   -0.4396    1.6016 O   0  0  0  0  0  0  0  0  0  0  0  0
   -5.0361   -0.1492    0.7043 C   0  0  0  0  0  0  0  0  0  0  0  0
   -5.9339    0.7853    1.0443 C   0  0  0  0  0  0  0  0  0  0  0  0
   -7.0201    1.1402    0.1485 C   0  0  0  0  0  0  0  0  0  0  0  0
   -7.1128    0.4890   -1.0816 C   0  0  0  0  0  0  0  0  0  0  0  0
   -8.1163    0.7881   -1.9993 C   0  0  0  0  0  0  0  0  0  0  0  0
   -9.0403    1.7637   -1.6619 C   0  0  0  0  0  0  0  0  0  0  0  0
  -10.0337    2.0746   -2.5453 O   0  0  0  0  0  0  0  0  0  0  0  0
   -8.9670    2.4272   -0.4363 C   0  0  0  0  0  0  0  0  0  0  0  0
   -9.9154    3.3781   -0.1756 O   0  0  0  0  0  0  0  0  0  0  0  0
   -7.9599    2.1235    0.4765 C   0  0  0  0  0  0  0  0  0  0  0  0
   -6.1896   -0.5122   -1.4346 O   0  0  0  0  0  0  0  0  0  0  0  0
   -5.1709   -0.9170   -0.5723 C   0  0  0  0  0  0  0  0  0  0  0  0
   -4.4543   -1.8708   -0.8587 O   0  0  0  0  0  0  0  0  0  0  0  0
   -1.9928   -1.6518    1.5865 C   0  0  0  0  0  0  0  0  0  0  0  0
   -0.6741   -1.8429    1.1665 C   0  0  0  0  0  0  0  0  0  0  0  0
    3.9549   -1.6050   -0.7617 O   0  0  0  0  0  0  0  0  0  0  0  0
    5.3289   -1.8447   -1.1139 C   0  0  1  0  0  0  0  0  0  0  0  0
    6.1427   -1.9507    0.1806 C   0  0  0  0  0  0  0  0  0  0  0  0
    6.3145   -0.6084    0.8572 C   0  0  0  0  0  0  0  0  0  0  0  0
    7.3885    0.2250    0.5107 C   0  0  0  0  0  0  0  0  0  0  0  0
    7.5269    1.4596    1.1311 C   0  0  0  0  0  0  0  0  0  0  0  0
    8.6141    2.2292    0.8326 O   0  0  0  0  0  0  0  0  0  0  0  0
    6.5898    1.8940    2.0631 C   0  0  0  0  0  0  0  0  0  0  0  0
    6.6813    3.1419    2.6080 O   0  0  0  0  0  0  0  0  0  0  0  0
    5.5292    1.0785    2.4275 C   0  0  0  0  0  0  0  0  0  0  0  0
    5.3904   -0.1732    1.8228 C   0  0  0  0  0  0  0  0  0  0  0  0
    5.4601   -3.1573   -1.8786 C   0  0  0  0  0  0  0  0  0  0  0  0
    4.6124   -4.0282   -1.9964 O   0  0  0  0  0  0  0  0  0  0  0  0
    6.6726   -3.3121   -2.4522 O   0  0  0  0  0  0  0  0  0  0  0  0
    1.1204   -0.6814   -2.1837 H   0  0  0  0  0  0  0  0  0  0  0  0
    1.9817   -1.5185    0.6667 H   0  0  0  0  0  0  0  0  0  0  0  0
   -0.3397    0.8857   -0.8372 H   0  0  0  0  0  0  0  0  0  0  0  0
   -2.2669    1.9580   -0.7932 H   0  0  0  0  0  0  0  0  0  0  0  0
   -5.8363    1.3163    1.9848 H   0  0  0  0  0  0  0  0  0  0  0  0
   -8.1776    0.2722   -2.9514 H   0  0  0  0  0  0  0  0  0  0  0  0
  -10.5545    2.7724   -2.1000 H   0  0  0  0  0  0  0  0  0  0  0  0
   -9.7445    3.7516    0.7063 H   0  0  0  0  0  0  0  0  0  0  0  0
   -7.8989    2.6414    1.4284 H   0  0  0  0  0  0  0  0  0  0  0  0
   -2.4512   -2.3605    2.2709 H   0  0  0  0  0  0  0  0  0  0  0  0
   -0.1251   -2.7066    1.5361 H   0  0  0  0  0  0  0  0  0  0  0  0
    5.6998   -1.0259   -1.7442 H   0  0  0  0  0  0  0  0  0  0  0  0
    7.1374   -2.3728   -0.0116 H   0  0  0  0  0  0  0  0  0  0  0  0
    5.6538   -2.6413    0.8810 H   0  0  0  0  0  0  0  0  0  0  0  0
    8.1245   -0.0891   -0.2249 H   0  0  0  0  0  0  0  0  0  0  0  0
    8.8872    2.6419    1.6727 H   0  0  0  0  0  0  0  0  0  0  0  0
    7.0093    3.7208    1.8954 H   0  0  0  0  0  0  0  0  0  0  0  0
    4.8040    1.4181    3.1608 H   0  0  0  0  0  0  0  0  0  0  0  0
    4.5488   -0.8044    2.1012 H   0  0  0  0  0  0  0  0  0  0  0  0
    6.5949   -4.1601   -2.9399 H   0  0  0  0  0  0  0  0  0  0  0  0
  1  2  2  0
  2  3  1  0
  3  4  2  3
  4  5  1  0
  5  6  2  0
  6  7  1  0
  7  8  1  0
  7  9  2  0
  9 10  1  0
 10 11  1  0
 11 12  2  0
 12 13  1  0
 13 14  2  0
 14 15  1  0
 15 16  2  0
 16 17  1  0
 16 18  1  0
 18 19  1  0
 18 20  2  0
 14 21  1  0
 21 22  1  0
 22 23  2  0
  9 24  1  0
 24 25  2  0
  2 26  1  0
 26 27  1  0
 27 28  1  0
 28 29  1  0
 29 30  2  0
 30 31  1  0
 31 32  1  0
 31 33  2  0
 33 34  1  0
 33 35  1  0
 35 36  2  0
 27 37  1  0
 37 38  2  0
 37 39  1  0
 25  5  1  0
 36 29  1  0
 22 11  1  0
 20 13  1  0
  3 40  1  0
  4 41  1  0
  6 42  1  0
  8 43  1  0
 12 44  1  0
 15 45  1  0
 17 46  1  0
 19 47  1  0
 20 48  1  0
 24 49  1  0
 25 50  1  0
 27 51  1  6
 28 52  1  0
 28 53  1  0
 30 54  1  0
 32 55  1  0
 34 56  1  0
 35 57  1  0
 36 58  1  0
 39 59  1  0
M  END
>  <Name>  (634) 
Sagecoumarin

>  <PubChem ID>  (634) 
15491283

>  <CDB ID>  (634) 
CDB0634

>  <Smiles>  (634) 
O=C(C=CC1=CC(O)=C(OC2=CC3=C(C=C(O)C(O)=C3)OC2=O)C=C1)O[C@@H](CC1=CC(O)=C(O)C=C1)C(=O)O

>  <Chemical class>  (634) 
3,6,7-Trioxygenated Coumarins

>  <Natural source>  (634) 
Salvia officinalis

>  <Molecular Formula>  (634) 
C27H20O12

>  <InChI-Key>  (634) 
FGLLLJUSIHHQKZ-QHCPKHFHSA-N

>  <Total Molweight>  (634) 
536.444

>  <cLogP>  (634) 
2.3879

>  <cLogS>  (634) 
-4.077

>  <H-Acceptors>  (634) 
12

>  <H-Donors>  (634) 
6

>  <Rotatable Bonds>  (634) 
9

>  <Polar Surface Area>  (634) 
200.28

$$$$
CDB0635
     RDKit          3D

 29 30  0  0  0  0  0  0  0  0999 V2000
   -4.3726    1.1107   -0.0946 C   0  0  0  0  0  0  0  0  0  0  0  0
   -3.4857    0.0006   -0.0775 O   0  0  0  0  0  0  0  0  0  0  0  0
   -2.1466    0.2646    0.0366 C   0  0  0  0  0  0  0  0  0  0  0  0
   -1.3058   -0.8446    0.2114 C   0  0  0  0  0  0  0  0  0  0  0  0
    0.0729   -0.6635    0.3586 C   0  0  0  0  0  0  0  0  0  0  0  0
    0.6429    0.6007    0.3072 C   0  0  0  0  0  0  0  0  0  0  0  0
   -0.1877    1.7065    0.1119 C   0  0  0  0  0  0  0  0  0  0  0  0
   -1.5737    1.5397   -0.0222 C   0  0  0  0  0  0  0  0  0  0  0  0
    2.0829    0.7382    0.4614 C   0  0  0  0  0  0  0  0  0  0  0  0
    2.8705   -0.3355    0.6474 C   0  0  0  0  0  0  0  0  0  0  0  0
    2.2621   -1.7067    0.6956 C   0  0  0  0  0  0  0  0  0  0  0  0
    2.9468   -2.7144    0.8479 O   0  0  0  0  0  0  0  0  0  0  0  0
    0.8828   -1.7969    0.5541 O   0  0  0  0  0  0  0  0  0  0  0  0
    4.2458   -0.2978    0.8026 O   0  0  0  0  0  0  0  0  0  0  0  0
    4.8999    0.9626    0.7781 C   0  0  0  0  0  0  0  0  0  0  0  0
   -1.8331   -2.1079    0.3202 O   0  0  0  0  0  0  0  0  0  0  0  0
   -1.9520   -2.7016   -0.9718 C   0  0  0  0  0  0  0  0  0  0  0  0
   -4.2617    1.7225    0.8069 H   0  0  0  0  0  0  0  0  0  0  0  0
   -5.3952    0.7216   -0.1089 H   0  0  0  0  0  0  0  0  0  0  0  0
   -4.2325    1.7103   -0.9998 H   0  0  0  0  0  0  0  0  0  0  0  0
    0.2272    2.7112    0.0655 H   0  0  0  0  0  0  0  0  0  0  0  0
   -2.1784    2.4289   -0.1707 H   0  0  0  0  0  0  0  0  0  0  0  0
    2.4803    1.7445    0.4195 H   0  0  0  0  0  0  0  0  0  0  0  0
    4.5517    1.6011    1.5964 H   0  0  0  0  0  0  0  0  0  0  0  0
    5.9709    0.7894    0.9193 H   0  0  0  0  0  0  0  0  0  0  0  0
    4.7639    1.4560   -0.1897 H   0  0  0  0  0  0  0  0  0  0  0  0
   -2.6448   -2.1405   -1.6081 H   0  0  0  0  0  0  0  0  0  0  0  0
   -0.9753   -2.7895   -1.4604 H   0  0  0  0  0  0  0  0  0  0  0  0
   -2.3557   -3.7100   -0.8407 H   0  0  0  0  0  0  0  0  0  0  0  0
  1  2  1  0
  2  3  1  0
  3  4  2  0
  4  5  1  0
  5  6  2  0
  6  7  1  0
  7  8  2  0
  6  9  1  0
  9 10  2  0
 10 11  1  0
 11 12  2  0
 11 13  1  0
 10 14  1  0
 14 15  1  0
  4 16  1  0
 16 17  1  0
  8  3  1  0
 13  5  1  0
  1 18  1  0
  1 19  1  0
  1 20  1  0
  7 21  1  0
  8 22  1  0
  9 23  1  0
 15 24  1  0
 15 25  1  0
 15 26  1  0
 17 27  1  0
 17 28  1  0
 17 29  1  0
M  END
>  <Name>  (635) 
Schinicoumarin

>  <PubChem ID>  (635) 
5321163

>  <CDB ID>  (635) 
CDB0635

>  <Smiles>  (635) 
COC1=C(C2=C(C=C1)C=C(C(=O)O2)OC)OC

>  <Chemical class>  (635) 
3,7,8-Trioxygenated Coumarins

>  <Natural source>  (635) 
Zanthoxylum schinifolium

>  <Molecular Formula>  (635) 
C12H12O5

>  <InChI-Key>  (635) 
JPCDNRZQWAURND-UHFFFAOYSA-N

>  <Total Molweight>  (635) 
236.222

>  <cLogP>  (635) 
1.2855

>  <cLogS>  (635) 
-2.465

>  <H-Acceptors>  (635) 
5

>  <H-Donors>  (635) 
0

>  <Rotatable Bonds>  (635) 
3

>  <Polar Surface Area>  (635) 
53.99

$$$$
CDB0636
     RDKit          3D

 42 45  0  0  0  0  0  0  0  0999 V2000
    6.1428    2.0395    0.3200 C   0  0  0  0  0  0  0  0  0  0  0  0
    5.6419    0.8419   -0.2624 O   0  0  0  0  0  0  0  0  0  0  0  0
    4.2944    0.6313   -0.1821 C   0  0  0  0  0  0  0  0  0  0  0  0
    3.3685    1.4638    0.4340 C   0  0  0  0  0  0  0  0  0  0  0  0
    2.0123    1.1127    0.4234 C   0  0  0  0  0  0  0  0  0  0  0  0
    1.5277   -0.0462   -0.1799 C   0  0  0  0  0  0  0  0  0  0  0  0
    2.4862   -0.8893   -0.7657 C   0  0  0  0  0  0  0  0  0  0  0  0
    3.8460   -0.5433   -0.7851 C   0  0  0  0  0  0  0  0  0  0  0  0
    2.1381   -2.0525   -1.4060 O   0  0  0  0  0  0  0  0  0  0  0  0
    2.2795   -3.1638   -0.5189 C   0  0  0  0  0  0  0  0  0  0  0  0
    0.0711   -0.2733   -0.1390 C   0  0  0  0  0  0  0  0  0  0  0  0
   -0.7465    0.5466    0.5539 C   0  0  0  0  0  0  0  0  0  0  0  0
   -0.2088    1.7689    1.2091 C   0  0  0  0  0  0  0  0  0  0  0  0
   -0.9207    2.5485    1.8341 O   0  0  0  0  0  0  0  0  0  0  0  0
    1.1494    2.0104    1.0779 O   0  0  0  0  0  0  0  0  0  0  0  0
   -2.1975    0.2596    0.6549 C   0  0  0  0  0  0  0  0  0  0  0  0
   -3.1330    1.1595    0.1187 C   0  0  0  0  0  0  0  0  0  0  0  0
   -4.4723    0.8483    0.2305 C   0  0  0  0  0  0  0  0  0  0  0  0
   -4.9025   -0.3019    0.8480 C   0  0  0  0  0  0  0  0  0  0  0  0
   -4.0181   -1.2078    1.3895 C   0  0  0  0  0  0  0  0  0  0  0  0
   -2.6525   -0.9202    1.2913 C   0  0  0  0  0  0  0  0  0  0  0  0
   -6.2573   -0.4155    0.8492 O   0  0  0  0  0  0  0  0  0  0  0  0
   -6.6321    0.8049    0.1771 C   0  0  0  0  0  0  0  0  0  0  0  0
   -5.5035    1.6025   -0.2366 O   0  0  0  0  0  0  0  0  0  0  0  0
   -0.3993   -1.4192   -0.7599 O   0  0  0  0  0  0  0  0  0  0  0  0
   -0.7618   -1.1627   -2.1190 C   0  0  0  0  0  0  0  0  0  0  0  0
    5.9642    2.0568    1.4002 H   0  0  0  0  0  0  0  0  0  0  0  0
    5.7163    2.9232   -0.1659 H   0  0  0  0  0  0  0  0  0  0  0  0
    7.2252    2.0612    0.1608 H   0  0  0  0  0  0  0  0  0  0  0  0
    3.6592    2.3857    0.9259 H   0  0  0  0  0  0  0  0  0  0  0  0
    4.5603   -1.1979   -1.2792 H   0  0  0  0  0  0  0  0  0  0  0  0
    3.3351   -3.3539   -0.2975 H   0  0  0  0  0  0  0  0  0  0  0  0
    1.7178   -3.0150    0.4101 H   0  0  0  0  0  0  0  0  0  0  0  0
    1.8743   -4.0467   -1.0222 H   0  0  0  0  0  0  0  0  0  0  0  0
   -2.8279    2.0806   -0.3668 H   0  0  0  0  0  0  0  0  0  0  0  0
   -4.3691   -2.1114    1.8745 H   0  0  0  0  0  0  0  0  0  0  0  0
   -1.9358   -1.6246    1.7104 H   0  0  0  0  0  0  0  0  0  0  0  0
   -7.2547    1.4015    0.8539 H   0  0  0  0  0  0  0  0  0  0  0  0
   -7.2232    0.5485   -0.7096 H   0  0  0  0  0  0  0  0  0  0  0  0
   -1.6296   -0.4978   -2.1738 H   0  0  0  0  0  0  0  0  0  0  0  0
    0.0713   -0.7358   -2.6872 H   0  0  0  0  0  0  0  0  0  0  0  0
   -1.0352   -2.1172   -2.5780 H   0  0  0  0  0  0  0  0  0  0  0  0
  1  2  1  0
  2  3  1  0
  3  4  2  0
  4  5  1  0
  5  6  2  0
  6  7  1  0
  7  8  2  0
  7  9  1  0
  9 10  1  0
  6 11  1  0
 11 12  2  0
 12 13  1  0
 13 14  2  0
 13 15  1  0
 12 16  1  0
 16 17  2  0
 17 18  1  0
 18 19  2  0
 19 20  1  0
 20 21  2  0
 19 22  1  0
 22 23  1  0
 23 24  1  0
 11 25  1  0
 25 26  1  0
  8  3  1  0
 15  5  1  0
 21 16  1  0
 24 18  1  0
  1 27  1  0
  1 28  1  0
  1 29  1  0
  4 30  1  0
  8 31  1  0
 10 32  1  0
 10 33  1  0
 10 34  1  0
 17 35  1  0
 20 36  1  0
 21 37  1  0
 23 38  1  0
 23 39  1  0
 26 40  1  0
 26 41  1  0
 26 42  1  0
M  END
>  <Name>  (636) 
Derrusnin

>  <PubChem ID>  (636) 
1715307

>  <CDB ID>  (636) 
CDB0636

>  <Smiles>  (636) 
COC1=CC2=C(C(=C1)OC)C(=C(C(=O)O2)C3=CC4=C(C=C3)OCO4)OC

>  <Chemical class>  (636) 
4,5,7-Trioxygenated Coumarins

>  <Natural source>  (636) 
Derris robusta

>  <Molecular Formula>  (636) 
C19H16O7

>  <InChI-Key>  (636) 
PZYZNVLXKYMURF-UHFFFAOYSA-N

>  <Total Molweight>  (636) 
356.329

>  <cLogP>  (636) 
2.7697

>  <cLogS>  (636) 
-3.735

>  <H-Acceptors>  (636) 
7

>  <H-Donors>  (636) 
0

>  <Rotatable Bonds>  (636) 
4

>  <Polar Surface Area>  (636) 
72.45

$$$$
CDB0637
     RDKit          3D

 29 32  0  0  0  0  0  0  0  0999 V2000
    4.3380   -0.8966    0.5847 C   0  0  0  0  0  0  0  0  0  0  0  0
    3.1111   -1.5263    0.8359 C   0  0  0  0  0  0  0  0  0  0  0  0
    1.9247   -0.8410    0.5170 C   0  0  0  0  0  0  0  0  0  0  0  0
    2.0223    0.4367   -0.0360 C   0  0  0  0  0  0  0  0  0  0  0  0
    3.2259    1.0890   -0.2975 C   0  0  0  0  0  0  0  0  0  0  0  0
    4.3826    0.3815    0.0306 C   0  0  0  0  0  0  0  0  0  0  0  0
    5.6178    0.9260   -0.1835 O   0  0  0  0  0  0  0  0  0  0  0  0
    0.7805    0.9507   -0.2815 O   0  0  0  0  0  0  0  0  0  0  0  0
   -0.1010    0.0044    0.1134 C   0  0  0  0  0  0  0  0  0  0  0  0
    0.5354   -1.1068    0.6073 C   0  0  0  0  0  0  0  0  0  0  0  0
   -0.2302   -2.2327    1.0822 C   0  0  0  0  0  0  0  0  0  0  0  0
    0.2751   -3.2539    1.5347 O   0  0  0  0  0  0  0  0  0  0  0  0
   -1.6379   -2.0840    0.9923 O   0  0  0  0  0  0  0  0  0  0  0  0
   -2.2779   -0.9143    0.4729 C   0  0  0  0  0  0  0  0  0  0  0  0
   -3.6685   -0.9171    0.4490 C   0  0  0  0  0  0  0  0  0  0  0  0
   -4.3217    0.2029   -0.0490 C   0  0  0  0  0  0  0  0  0  0  0  0
   -3.6086    1.3093   -0.5164 C   0  0  0  0  0  0  0  0  0  0  0  0
   -2.2086    1.2947   -0.4849 C   0  0  0  0  0  0  0  0  0  0  0  0
   -1.5272    0.1815    0.0107 C   0  0  0  0  0  0  0  0  0  0  0  0
   -1.5152    2.3791   -0.9431 O   0  0  0  0  0  0  0  0  0  0  0  0
   -5.6854    0.1800   -0.0637 O   0  0  0  0  0  0  0  0  0  0  0  0
    5.2654   -1.4114    0.8249 H   0  0  0  0  0  0  0  0  0  0  0  0
    3.0821   -2.5232    1.2682 H   0  0  0  0  0  0  0  0  0  0  0  0
    3.2356    2.0809   -0.7279 H   0  0  0  0  0  0  0  0  0  0  0  0
    5.5055    1.8105   -0.5695 H   0  0  0  0  0  0  0  0  0  0  0  0
   -4.2317   -1.7718    0.8099 H   0  0  0  0  0  0  0  0  0  0  0  0
   -4.1380    2.1743   -0.9015 H   0  0  0  0  0  0  0  0  0  0  0  0
   -2.1301    3.0632   -1.2512 H   0  0  0  0  0  0  0  0  0  0  0  0
   -6.0199    1.0143   -0.4319 H   0  0  0  0  0  0  0  0  0  0  0  0
  1  2  1  0
  2  3  2  0
  3  4  1  0
  4  5  2  0
  5  6  1  0
  6  7  1  0
  4  8  1  0
  8  9  1  0
  9 10  2  0
 10 11  1  0
 11 12  2  0
 11 13  1  0
 13 14  1  0
 14 15  2  0
 15 16  1  0
 16 17  2  0
 17 18  1  0
 18 19  2  0
 18 20  1  0
 16 21  1  0
  6  1  2  0
 10  3  1  0
 19  9  1  0
 19 14  1  0
  1 22  1  0
  2 23  1  0
  5 24  1  0
  7 25  1  0
 15 26  1  0
 17 27  1  0
 20 28  1  0
 21 29  1  0
M  END
>  <Name>  (637) 
Aureol

>  <PubChem ID>  (637) 
5491648

>  <CDB ID>  (637) 
CDB0637

>  <Smiles>  (637) 
C1=CC2=C(C=C1O)OC3=C2C(=O)OC4=CC(=CC(=C43)O)O

>  <Chemical class>  (637) 
4,5,7-Trioxygenated Coumarins

>  <Natural source>  (637) 
Phaseolus aureus

>  <Molecular Formula>  (637) 
C15H8O6

>  <InChI-Key>  (637) 
WIRRQLQRDSREEG-UHFFFAOYSA-N

>  <Total Molweight>  (637) 
284.223

>  <cLogP>  (637) 
2.495

>  <cLogS>  (637) 
-4.049

>  <H-Acceptors>  (637) 
6

>  <H-Donors>  (637) 
3

>  <Rotatable Bonds>  (637) 
0

>  <Polar Surface Area>  (637) 
100.13

$$$$
CDB0638
     RDKit          3D

 30 33  0  0  0  0  0  0  0  0999 V2000
    3.9247    0.3739    1.2538 C   0  0  0  0  0  0  0  0  0  0  0  0
    4.5810   -0.2374    0.1833 C   0  0  0  0  0  0  0  0  0  0  0  0
    3.8734   -0.7626   -0.8928 C   0  0  0  0  0  0  0  0  0  0  0  0
    2.4865   -0.6654   -0.8800 C   0  0  0  0  0  0  0  0  0  0  0  0
    1.7998   -0.0562    0.1830 C   0  0  0  0  0  0  0  0  0  0  0  0
    2.5318    0.4624    1.2494 C   0  0  0  0  0  0  0  0  0  0  0  0
    1.9473    1.0715    2.3247 O   0  0  0  0  0  0  0  0  0  0  0  0
    0.3714   -0.0406    0.0368 C   0  0  0  0  0  0  0  0  0  0  0  0
   -0.3350   -0.5549   -1.0184 C   0  0  0  0  0  0  0  0  0  0  0  0
   -1.7012   -0.3117   -0.7283 C   0  0  0  0  0  0  0  0  0  0  0  0
   -2.9299   -0.5687   -1.3632 C   0  0  0  0  0  0  0  0  0  0  0  0
   -4.0943   -0.1511   -0.7196 C   0  0  0  0  0  0  0  0  0  0  0  0
   -4.0634    0.5020    0.5140 C   0  0  0  0  0  0  0  0  0  0  0  0
   -2.8631    0.7709    1.1680 C   0  0  0  0  0  0  0  0  0  0  0  0
   -1.7096    0.3450    0.5074 C   0  0  0  0  0  0  0  0  0  0  0  0
   -0.4331    0.5097    0.9745 O   0  0  0  0  0  0  0  0  0  0  0  0
   -5.2672    0.8689    1.0571 O   0  0  0  0  0  0  0  0  0  0  0  0
   -5.2971   -0.3933   -1.3235 O   0  0  0  0  0  0  0  0  0  0  0  0
    0.3607   -1.1837   -2.1171 C   0  0  0  0  0  0  0  0  0  0  0  0
   -0.2063   -1.6640   -3.0913 O   0  0  0  0  0  0  0  0  0  0  0  0
    1.7762   -1.2116   -1.9959 O   0  0  0  0  0  0  0  0  0  0  0  0
    5.9409   -0.3409    0.1554 O   0  0  0  0  0  0  0  0  0  0  0  0
    4.4774    0.7838    2.0937 H   0  0  0  0  0  0  0  0  0  0  0  0
    4.3945   -1.2354   -1.7191 H   0  0  0  0  0  0  0  0  0  0  0  0
    0.9798    1.0624    2.1887 H   0  0  0  0  0  0  0  0  0  0  0  0
   -2.9792   -1.0752   -2.3230 H   0  0  0  0  0  0  0  0  0  0  0  0
   -2.8055    1.2744    2.1232 H   0  0  0  0  0  0  0  0  0  0  0  0
   -5.1005    1.3100    1.9083 H   0  0  0  0  0  0  0  0  0  0  0  0
   -5.9640   -0.0243   -0.7106 H   0  0  0  0  0  0  0  0  0  0  0  0
    6.3042    0.0634    0.9614 H   0  0  0  0  0  0  0  0  0  0  0  0
  1  2  2  0
  2  3  1  0
  3  4  2  0
  4  5  1  0
  5  6  2  0
  6  7  1  0
  5  8  1  0
  8  9  2  0
  9 10  1  0
 10 11  2  0
 11 12  1  0
 12 13  2  0
 13 14  1  0
 14 15  2  0
 15 16  1  0
 13 17  1  0
 12 18  1  0
  9 19  1  0
 19 20  2  0
 19 21  1  0
  2 22  1  0
  6  1  1  0
 21  4  1  0
 16  8  1  0
 15 10  1  0
  1 23  1  0
  3 24  1  0
  7 25  1  0
 11 26  1  0
 14 27  1  0
 17 28  1  0
 18 29  1  0
 22 30  1  0
M  END
>  <Name>  (638) 
Norwedelolactone

>  <PubChem ID>  (638) 
5489605

>  <CDB ID>  (638) 
CDB0638

>  <Smiles>  (638) 
C1=C(C=C2C(=C1O)C3=C(C4=CC(=C(C=C4O3)O)O)C(=O)O2)O

>  <Chemical class>  (638) 
4,5,7-Trioxygenated Coumarins

>  <Natural source>  (638) 
Eclipta alba

>  <Molecular Formula>  (638) 
C15H8O7

>  <InChI-Key>  (638) 
LUTYTNLPIUCKBJ-UHFFFAOYSA-N

>  <Total Molweight>  (638) 
300.222

>  <cLogP>  (638) 
2.1493

>  <cLogS>  (638) 
-3.753

>  <H-Acceptors>  (638) 
7

>  <H-Donors>  (638) 
4

>  <Rotatable Bonds>  (638) 
0

>  <Polar Surface Area>  (638) 
120.36

$$$$
CDB0639
     RDKit          3D

 45 48  0  0  0  0  0  0  0  0999 V2000
    3.5524   -2.5674   -0.1928 C   0  0  0  0  0  0  0  0  0  0  0  0
    4.1611   -1.3386    0.4236 C   0  0  0  0  0  0  0  0  0  0  0  0
    3.9867   -0.0768   -0.0170 C   0  0  0  0  0  0  0  0  0  0  0  0
    3.1898    0.4014   -1.2033 C   0  0  0  0  0  0  0  0  0  0  0  0
    1.9555    1.1797   -0.7912 C   0  0  0  0  0  0  0  0  0  0  0  0
    0.6997    0.5444   -0.6555 C   0  0  0  0  0  0  0  0  0  0  0  0
   -0.4037    1.2493   -0.1572 C   0  0  0  0  0  0  0  0  0  0  0  0
   -0.2525    2.6146    0.1370 C   0  0  0  0  0  0  0  0  0  0  0  0
    0.9579    3.2779   -0.0261 C   0  0  0  0  0  0  0  0  0  0  0  0
    2.0548    2.5495   -0.4780 C   0  0  0  0  0  0  0  0  0  0  0  0
    3.2651    3.1725   -0.6180 O   0  0  0  0  0  0  0  0  0  0  0  0
   -1.3472    3.3938    0.6311 O   0  0  0  0  0  0  0  0  0  0  0  0
   -2.6384    2.8634    0.8808 C   0  0  0  0  0  0  0  0  0  0  0  0
   -3.5470    3.5709    1.3006 O   0  0  0  0  0  0  0  0  0  0  0  0
   -2.7838    1.4567    0.6026 C   0  0  0  0  0  0  0  0  0  0  0  0
   -1.7223    0.7337    0.1188 C   0  0  0  0  0  0  0  0  0  0  0  0
   -2.0490   -0.5653   -0.0685 O   0  0  0  0  0  0  0  0  0  0  0  0
   -3.3591   -0.6842    0.2995 C   0  0  0  0  0  0  0  0  0  0  0  0
   -3.8637    0.5465    0.7215 C   0  0  0  0  0  0  0  0  0  0  0  0
   -5.2054    0.6137    1.1385 C   0  0  0  0  0  0  0  0  0  0  0  0
   -5.9757   -0.5570    1.1114 C   0  0  0  0  0  0  0  0  0  0  0  0
   -5.4244   -1.7632    0.6827 C   0  0  0  0  0  0  0  0  0  0  0  0
   -4.0980   -1.8653    0.2628 C   0  0  0  0  0  0  0  0  0  0  0  0
   -6.2408   -2.8591    0.6887 O   0  0  0  0  0  0  0  0  0  0  0  0
    0.5971   -0.7918   -0.9532 O   0  0  0  0  0  0  0  0  0  0  0  0
    0.1341   -0.9720   -2.2938 C   0  0  0  0  0  0  0  0  0  0  0  0
    5.0093   -1.6139    1.6378 C   0  0  0  0  0  0  0  0  0  0  0  0
    2.9456   -2.3609   -1.0759 H   0  0  0  0  0  0  0  0  0  0  0  0
    2.9082   -3.0720    0.5349 H   0  0  0  0  0  0  0  0  0  0  0  0
    4.3408   -3.2644   -0.4961 H   0  0  0  0  0  0  0  0  0  0  0  0
    4.4802    0.7312    0.5238 H   0  0  0  0  0  0  0  0  0  0  0  0
    2.9213   -0.4175   -1.8749 H   0  0  0  0  0  0  0  0  0  0  0  0
    3.8361    1.0394   -1.8200 H   0  0  0  0  0  0  0  0  0  0  0  0
    1.0324    4.3328    0.2149 H   0  0  0  0  0  0  0  0  0  0  0  0
    3.1880    4.0974   -0.3304 H   0  0  0  0  0  0  0  0  0  0  0  0
   -5.6403    1.5509    1.4765 H   0  0  0  0  0  0  0  0  0  0  0  0
   -7.0150   -0.5242    1.4307 H   0  0  0  0  0  0  0  0  0  0  0  0
   -3.6488   -2.7901   -0.0723 H   0  0  0  0  0  0  0  0  0  0  0  0
   -5.7312   -3.6305    0.3897 H   0  0  0  0  0  0  0  0  0  0  0  0
   -0.8552   -0.5292   -2.4480 H   0  0  0  0  0  0  0  0  0  0  0  0
    0.8433   -0.5556   -3.0171 H   0  0  0  0  0  0  0  0  0  0  0  0
    0.0560   -2.0477   -2.4771 H   0  0  0  0  0  0  0  0  0  0  0  0
    4.4113   -2.0998    2.4158 H   0  0  0  0  0  0  0  0  0  0  0  0
    5.4321   -0.6993    2.0669 H   0  0  0  0  0  0  0  0  0  0  0  0
    5.8429   -2.2738    1.3759 H   0  0  0  0  0  0  0  0  0  0  0  0
  1  2  1  0
  2  3  2  3
  3  4  1  0
  4  5  1  0
  5  6  2  0
  6  7  1  0
  7  8  2  0
  8  9  1  0
  9 10  2  0
 10 11  1  0
  8 12  1  0
 12 13  1  0
 13 14  2  0
 13 15  1  0
 15 16  2  0
 16 17  1  0
 17 18  1  0
 18 19  1  0
 19 20  2  0
 20 21  1  0
 21 22  2  0
 22 23  1  0
 22 24  1  0
  6 25  1  0
 25 26  1  0
  2 27  1  0
 10  5  1  0
 16  7  1  0
 19 15  1  0
 23 18  2  0
  1 28  1  0
  1 29  1  0
  1 30  1  0
  3 31  1  0
  4 32  1  0
  4 33  1  0
  9 34  1  0
 11 35  1  0
 20 36  1  0
 21 37  1  0
 23 38  1  0
 24 39  1  0
 26 40  1  0
 26 41  1  0
 26 42  1  0
 27 43  1  0
 27 44  1  0
 27 45  1  0
M  END
>  <Name>  (639) 
Glycyrol

>  <PubChem ID>  (639) 
5320083

>  <CDB ID>  (639) 
CDB0639

>  <Smiles>  (639) 
CC(=CCC1=C(C2=C(C=C1O)OC(=O)C3=C2OC4=C3C=CC(=C4)O)OC)C

>  <Chemical class>  (639) 
4,5,7-Trioxygenated Coumarins

>  <Natural source>  (639) 
Glycyrrhiza uralensis

>  <Molecular Formula>  (639) 
C21H18O6

>  <InChI-Key>  (639) 
LWESBHWAOZORCQ-UHFFFAOYSA-N

>  <Total Molweight>  (639) 
366.368

>  <cLogP>  (639) 
4.7932

>  <cLogS>  (639) 
-5.302

>  <H-Acceptors>  (639) 
6

>  <H-Donors>  (639) 
2

>  <Rotatable Bonds>  (639) 
3

>  <Polar Surface Area>  (639) 
89.13

$$$$
CDB0640
     RDKit          3D

 45 49  0  0  0  0  0  0  0  0999 V2000
   -4.6416    1.6542   -0.8085 C   0  0  0  0  0  0  0  0  0  0  0  0
   -4.5255    0.4132    0.0896 C   0  0  0  0  0  0  0  0  0  0  0  0
   -4.1946   -0.8624   -0.6941 C   0  0  0  0  0  0  0  0  0  0  0  0
   -2.8120   -0.7790   -1.3220 C   0  0  0  0  0  0  0  0  0  0  0  0
   -1.8052   -0.2567   -0.3338 C   0  0  0  0  0  0  0  0  0  0  0  0
   -2.2384    0.4452    0.8027 C   0  0  0  0  0  0  0  0  0  0  0  0
   -3.5521    0.6654    1.1176 O   0  0  0  0  0  0  0  0  0  0  0  0
   -1.3203    0.9674    1.7119 C   0  0  0  0  0  0  0  0  0  0  0  0
    0.0376    0.8291    1.4521 C   0  0  0  0  0  0  0  0  0  0  0  0
    0.5120    0.1597    0.3126 C   0  0  0  0  0  0  0  0  0  0  0  0
   -0.4199   -0.4130   -0.5610 C   0  0  0  0  0  0  0  0  0  0  0  0
   -0.0192   -1.0684   -1.6988 O   0  0  0  0  0  0  0  0  0  0  0  0
    0.2938   -2.4337   -1.4099 C   0  0  0  0  0  0  0  0  0  0  0  0
    1.9480    0.1694    0.1837 C   0  0  0  0  0  0  0  0  0  0  0  0
    2.8303    0.7370    1.0683 C   0  0  0  0  0  0  0  0  0  0  0  0
    4.1253    0.5092    0.5397 C   0  0  0  0  0  0  0  0  0  0  0  0
    3.9216   -0.1865   -0.6528 C   0  0  0  0  0  0  0  0  0  0  0  0
    2.5879   -0.3900   -0.8681 O   0  0  0  0  0  0  0  0  0  0  0  0
    4.9472   -0.6074   -1.4943 C   0  0  0  0  0  0  0  0  0  0  0  0
    6.2428   -0.2953   -1.0850 C   0  0  0  0  0  0  0  0  0  0  0  0
    6.5008    0.3986    0.0974 C   0  0  0  0  0  0  0  0  0  0  0  0
    5.4452    0.8102    0.9244 C   0  0  0  0  0  0  0  0  0  0  0  0
    7.2653   -0.7000   -1.8964 O   0  0  0  0  0  0  0  0  0  0  0  0
    2.3465    1.3985    2.2542 C   0  0  0  0  0  0  0  0  0  0  0  0
    3.0812    1.9125    3.0902 O   0  0  0  0  0  0  0  0  0  0  0  0
    0.9365    1.4180    2.3973 O   0  0  0  0  0  0  0  0  0  0  0  0
   -5.8628    0.2136    0.8182 C   0  0  0  0  0  0  0  0  0  0  0  0
   -4.9220    2.5336   -0.2169 H   0  0  0  0  0  0  0  0  0  0  0  0
   -5.3929    1.5115   -1.5921 H   0  0  0  0  0  0  0  0  0  0  0  0
   -3.6897    1.9071   -1.2863 H   0  0  0  0  0  0  0  0  0  0  0  0
   -4.9453   -1.0611   -1.4681 H   0  0  0  0  0  0  0  0  0  0  0  0
   -4.2053   -1.7203   -0.0072 H   0  0  0  0  0  0  0  0  0  0  0  0
   -2.5358   -1.7783   -1.6741 H   0  0  0  0  0  0  0  0  0  0  0  0
   -2.8286   -0.1159   -2.1948 H   0  0  0  0  0  0  0  0  0  0  0  0
   -1.6640    1.4980    2.5948 H   0  0  0  0  0  0  0  0  0  0  0  0
   -0.5959   -2.9787   -1.0771 H   0  0  0  0  0  0  0  0  0  0  0  0
    1.0852   -2.5272   -0.6595 H   0  0  0  0  0  0  0  0  0  0  0  0
    0.6484   -2.8970   -2.3353 H   0  0  0  0  0  0  0  0  0  0  0  0
    4.7460   -1.1436   -2.4128 H   0  0  0  0  0  0  0  0  0  0  0  0
    7.5188    0.6321    0.3973 H   0  0  0  0  0  0  0  0  0  0  0  0
    5.6450    1.3521    1.8456 H   0  0  0  0  0  0  0  0  0  0  0  0
    8.1078   -0.4125   -1.5077 H   0  0  0  0  0  0  0  0  0  0  0  0
   -5.8047   -0.6299    1.5159 H   0  0  0  0  0  0  0  0  0  0  0  0
   -6.1150    1.0934    1.4217 H   0  0  0  0  0  0  0  0  0  0  0  0
   -6.6824    0.0277    0.1163 H   0  0  0  0  0  0  0  0  0  0  0  0
  1  2  1  0
  2  3  1  0
  3  4  1  0
  4  5  1  0
  5  6  1  0
  6  7  1  0
  6  8  2  0
  8  9  1  0
  9 10  2  0
 10 11  1  0
 11 12  1  0
 12 13  1  0
 10 14  1  0
 14 15  2  0
 15 16  1  0
 16 17  1  0
 17 18  1  0
 17 19  2  0
 19 20  1  0
 20 21  2  0
 21 22  1  0
 20 23  1  0
 15 24  1  0
 24 25  2  0
 24 26  1  0
  2 27  1  0
  7  2  1  0
 11  5  2  0
 26  9  1  0
 18 14  1  0
 22 16  2  0
  1 28  1  0
  1 29  1  0
  1 30  1  0
  3 31  1  0
  3 32  1  0
  4 33  1  0
  4 34  1  0
  8 35  1  0
 13 36  1  0
 13 37  1  0
 13 38  1  0
 19 39  1  0
 21 40  1  0
 22 41  1  0
 23 42  1  0
 27 43  1  0
 27 44  1  0
 27 45  1  0
M  END
>  <Name>  (640) 
Isoglycyrol

>  <PubChem ID>  (640) 
124050

>  <CDB ID>  (640) 
CDB0640

>  <Smiles>  (640) 
CC1(CCC2=C(O1)C=C3C(=C2OC)C4=C(C5=C(O4)C=C(C=C5)O)C(=O)O3)C

>  <Chemical class>  (640) 
4,5,7-Trioxygenated Coumarins

>  <Natural source>  (640) 
Glycyrrhiza sp., Glycyrrhiza uralensis

>  <Molecular Formula>  (640) 
C21H18O6

>  <InChI-Key>  (640) 
CFWLRXJPRRCJTI-UHFFFAOYSA-N

>  <Total Molweight>  (640) 
366.368

>  <cLogP>  (640) 
4.3069

>  <cLogS>  (640) 
-5.783

>  <H-Acceptors>  (640) 
6

>  <H-Donors>  (640) 
1

>  <Rotatable Bonds>  (640) 
1

>  <Polar Surface Area>  (640) 
78.13

$$$$
CDB0641
     RDKit          3D

 43 47  0  0  0  0  0  0  0  0999 V2000
   -5.3836   -0.5730    1.3602 C   0  0  0  0  0  0  0  0  0  0  0  0
   -4.6819   -0.1868    0.0531 C   0  0  0  0  0  0  0  0  0  0  0  0
   -4.1590    1.2252    0.1596 C   0  0  0  0  0  0  0  0  0  0  0  0
   -2.8578    1.5262    0.1701 C   0  0  0  0  0  0  0  0  0  0  0  0
   -1.8889    0.4380    0.0841 C   0  0  0  0  0  0  0  0  0  0  0  0
   -2.3630   -0.8676   -0.1150 C   0  0  0  0  0  0  0  0  0  0  0  0
   -3.6865   -1.1980   -0.2028 O   0  0  0  0  0  0  0  0  0  0  0  0
   -1.4757   -1.9336   -0.2608 C   0  0  0  0  0  0  0  0  0  0  0  0
   -0.1099   -1.6832   -0.2111 C   0  0  0  0  0  0  0  0  0  0  0  0
    0.4023   -0.3918   -0.0047 C   0  0  0  0  0  0  0  0  0  0  0  0
   -0.4976    0.6662    0.1716 C   0  0  0  0  0  0  0  0  0  0  0  0
   -0.0367    1.9475    0.3617 O   0  0  0  0  0  0  0  0  0  0  0  0
    0.1460    2.2067    1.7559 C   0  0  0  0  0  0  0  0  0  0  0  0
    1.8423   -0.3246   -0.0107 C   0  0  0  0  0  0  0  0  0  0  0  0
    2.6958   -1.3854   -0.1830 C   0  0  0  0  0  0  0  0  0  0  0  0
    4.0079   -0.8536   -0.1177 C   0  0  0  0  0  0  0  0  0  0  0  0
    3.8428    0.5168    0.0888 C   0  0  0  0  0  0  0  0  0  0  0  0
    2.5161    0.8360    0.1555 O   0  0  0  0  0  0  0  0  0  0  0  0
    4.8930    1.4250    0.2092 C   0  0  0  0  0  0  0  0  0  0  0  0
    6.1754    0.8845    0.1121 C   0  0  0  0  0  0  0  0  0  0  0  0
    6.3929   -0.4770   -0.0918 C   0  0  0  0  0  0  0  0  0  0  0  0
    5.3149   -1.3651   -0.2104 C   0  0  0  0  0  0  0  0  0  0  0  0
    7.2793    1.6837    0.2147 O   0  0  0  0  0  0  0  0  0  0  0  0
    2.1730   -2.7145   -0.3805 C   0  0  0  0  0  0  0  0  0  0  0  0
    2.8784   -3.7055   -0.5316 O   0  0  0  0  0  0  0  0  0  0  0  0
    0.7580   -2.8074   -0.3860 O   0  0  0  0  0  0  0  0  0  0  0  0
   -5.6765   -0.2699   -1.1111 C   0  0  0  0  0  0  0  0  0  0  0  0
   -6.2098    0.1058    1.5984 H   0  0  0  0  0  0  0  0  0  0  0  0
   -4.6785   -0.5643    2.2001 H   0  0  0  0  0  0  0  0  0  0  0  0
   -5.7810   -1.5932    1.3031 H   0  0  0  0  0  0  0  0  0  0  0  0
   -4.8878    2.0283    0.2341 H   0  0  0  0  0  0  0  0  0  0  0  0
   -2.5110    2.5512    0.2374 H   0  0  0  0  0  0  0  0  0  0  0  0
   -1.8494   -2.9401   -0.4234 H   0  0  0  0  0  0  0  0  0  0  0  0
   -0.8137    2.2108    2.2833 H   0  0  0  0  0  0  0  0  0  0  0  0
    0.5907    3.2014    1.8544 H   0  0  0  0  0  0  0  0  0  0  0  0
    0.8254    1.4845    2.2211 H   0  0  0  0  0  0  0  0  0  0  0  0
    4.7009    2.4775    0.3660 H   0  0  0  0  0  0  0  0  0  0  0  0
    7.4106   -0.8546   -0.1615 H   0  0  0  0  0  0  0  0  0  0  0  0
    5.4908   -2.4257   -0.3716 H   0  0  0  0  0  0  0  0  0  0  0  0
    6.9899    2.6035    0.3341 H   0  0  0  0  0  0  0  0  0  0  0  0
   -6.0757   -1.2861   -1.2119 H   0  0  0  0  0  0  0  0  0  0  0  0
   -5.1837   -0.0371   -2.0628 H   0  0  0  0  0  0  0  0  0  0  0  0
   -6.5189    0.4188   -0.9824 H   0  0  0  0  0  0  0  0  0  0  0  0
  1  2  1  0
  2  3  1  0
  3  4  2  0
  4  5  1  0
  5  6  1  0
  6  7  1  0
  6  8  2  0
  8  9  1  0
  9 10  2  0
 10 11  1  0
 11 12  1  0
 12 13  1  0
 10 14  1  0
 14 15  2  0
 15 16  1  0
 16 17  1  0
 17 18  1  0
 17 19  2  0
 19 20  1  0
 20 21  2  0
 21 22  1  0
 20 23  1  0
 15 24  1  0
 24 25  2  0
 24 26  1  0
  2 27  1  0
  7  2  1  0
 11  5  2  0
 26  9  1  0
 18 14  1  0
 22 16  2  0
  1 28  1  0
  1 29  1  0
  1 30  1  0
  3 31  1  0
  4 32  1  0
  8 33  1  0
 13 34  1  0
 13 35  1  0
 13 36  1  0
 19 37  1  0
 21 38  1  0
 22 39  1  0
 23 40  1  0
 27 41  1  0
 27 42  1  0
 27 43  1  0
M  END
>  <Name>  (641) 
Gancaonin F

>  <PubChem ID>  (641) 
5317482

>  <CDB ID>  (641) 
CDB0641

>  <Smiles>  (641) 
CC1(C=CC2=C(O1)C=C3C(=C2OC)C4=C(C5=C(O4)C=C(C=C5)O)C(=O)O3)C

>  <Chemical class>  (641) 
4,5,7-Trioxygenated Coumarins

>  <Natural source>  (641) 
Glycyrrhiza sp.

>  <Molecular Formula>  (641) 
C21H16O6

>  <InChI-Key>  (641) 
YURHIASRSSMERJ-UHFFFAOYSA-N

>  <Total Molweight>  (641) 
364.352

>  <cLogP>  (641) 
4.1431

>  <cLogS>  (641) 
-5.918

>  <H-Acceptors>  (641) 
6

>  <H-Donors>  (641) 
1

>  <Rotatable Bonds>  (641) 
1

>  <Polar Surface Area>  (641) 
78.13

$$$$
CDB0642
     RDKit          3D

 48 51  0  0  0  0  0  0  0  0999 V2000
   -6.2920   -0.7635    0.4809 C   0  0  0  0  0  0  0  0  0  0  0  0
   -5.4930    0.2151   -0.3873 C   0  0  0  0  0  0  0  0  0  0  0  0
   -5.0360    1.3816    0.4559 C   0  0  0  0  0  0  0  0  0  0  0  0
   -3.7537    1.6171    0.7467 C   0  0  0  0  0  0  0  0  0  0  0  0
   -2.7440    0.6970    0.2336 C   0  0  0  0  0  0  0  0  0  0  0  0
   -3.1457   -0.3205   -0.6357 C   0  0  0  0  0  0  0  0  0  0  0  0
   -4.4389   -0.5431   -1.0144 O   0  0  0  0  0  0  0  0  0  0  0  0
   -2.2031   -1.1813   -1.1907 C   0  0  0  0  0  0  0  0  0  0  0  0
   -0.8530   -1.0096   -0.8891 C   0  0  0  0  0  0  0  0  0  0  0  0
   -0.3985   -0.0061   -0.0404 C   0  0  0  0  0  0  0  0  0  0  0  0
   -1.3748    0.8158    0.5604 C   0  0  0  0  0  0  0  0  0  0  0  0
   -0.9726    1.7913    1.4522 O   0  0  0  0  0  0  0  0  0  0  0  0
   -1.0736    1.2920    2.7949 C   0  0  0  0  0  0  0  0  0  0  0  0
    1.0576    0.1122    0.1483 C   0  0  0  0  0  0  0  0  0  0  0  0
    1.9125   -0.7781   -0.3922 C   0  0  0  0  0  0  0  0  0  0  0  0
    1.4004   -1.8935   -1.2360 C   0  0  0  0  0  0  0  0  0  0  0  0
    2.1351   -2.7486   -1.7201 O   0  0  0  0  0  0  0  0  0  0  0  0
    0.0348   -1.9224   -1.4817 O   0  0  0  0  0  0  0  0  0  0  0  0
    3.3747   -0.6416   -0.1902 C   0  0  0  0  0  0  0  0  0  0  0  0
    4.2325   -0.4848   -1.2876 C   0  0  0  0  0  0  0  0  0  0  0  0
    5.6168   -0.3666   -1.1072 C   0  0  0  0  0  0  0  0  0  0  0  0
    6.1633   -0.4040    0.1750 C   0  0  0  0  0  0  0  0  0  0  0  0
    5.3141   -0.5609    1.2719 C   0  0  0  0  0  0  0  0  0  0  0  0
    3.9328   -0.6816    1.0941 C   0  0  0  0  0  0  0  0  0  0  0  0
    7.4903   -0.2997    0.4888 O   0  0  0  0  0  0  0  0  0  0  0  0
    8.3978   -0.1712   -0.5982 C   0  0  0  0  0  0  0  0  0  0  0  0
    1.5243    1.2032    0.8651 O   0  0  0  0  0  0  0  0  0  0  0  0
   -6.3763    0.7330   -1.5288 C   0  0  0  0  0  0  0  0  0  0  0  0
   -5.6652   -1.1813    1.2780 H   0  0  0  0  0  0  0  0  0  0  0  0
   -7.1621   -0.2850    0.9437 H   0  0  0  0  0  0  0  0  0  0  0  0
   -6.6423   -1.6157   -0.1132 H   0  0  0  0  0  0  0  0  0  0  0  0
   -5.7986    2.0534    0.8415 H   0  0  0  0  0  0  0  0  0  0  0  0
   -3.4542    2.4704    1.3442 H   0  0  0  0  0  0  0  0  0  0  0  0
   -2.5179   -1.9749   -1.8629 H   0  0  0  0  0  0  0  0  0  0  0  0
   -0.4581    0.3962    2.9325 H   0  0  0  0  0  0  0  0  0  0  0  0
   -0.6957    2.0695    3.4654 H   0  0  0  0  0  0  0  0  0  0  0  0
   -2.1125    1.0831    3.0688 H   0  0  0  0  0  0  0  0  0  0  0  0
    3.8327   -0.4604   -2.2993 H   0  0  0  0  0  0  0  0  0  0  0  0
    6.2352   -0.2505   -1.9906 H   0  0  0  0  0  0  0  0  0  0  0  0
    5.7311   -0.5904    2.2753 H   0  0  0  0  0  0  0  0  0  0  0  0
    3.2974   -0.8015    1.9683 H   0  0  0  0  0  0  0  0  0  0  0  0
    8.2145    0.7517   -1.1582 H   0  0  0  0  0  0  0  0  0  0  0  0
    8.3564   -1.0474   -1.2538 H   0  0  0  0  0  0  0  0  0  0  0  0
    9.4091   -0.1134   -0.1841 H   0  0  0  0  0  0  0  0  0  0  0  0
    0.7867    1.8305    0.9943 H   0  0  0  0  0  0  0  0  0  0  0  0
   -7.2532    1.2744   -1.1571 H   0  0  0  0  0  0  0  0  0  0  0  0
   -6.7245   -0.0939   -2.1590 H   0  0  0  0  0  0  0  0  0  0  0  0
   -5.8105    1.4040   -2.1864 H   0  0  0  0  0  0  0  0  0  0  0  0
  1  2  1  0
  2  3  1  0
  3  4  2  0
  4  5  1  0
  5  6  1  0
  6  7  1  0
  6  8  2  0
  8  9  1  0
  9 10  2  0
 10 11  1  0
 11 12  1  0
 12 13  1  0
 10 14  1  0
 14 15  2  0
 15 16  1  0
 16 17  2  0
 16 18  1  0
 15 19  1  0
 19 20  1  0
 20 21  2  0
 21 22  1  0
 22 23  2  0
 23 24  1  0
 22 25  1  0
 25 26  1  0
 14 27  1  0
  2 28  1  0
  7  2  1  0
 11  5  2  0
 18  9  1  0
 24 19  2  0
  1 29  1  0
  1 30  1  0
  1 31  1  0
  3 32  1  0
  4 33  1  0
  8 34  1  0
 13 35  1  0
 13 36  1  0
 13 37  1  0
 20 38  1  0
 21 39  1  0
 23 40  1  0
 24 41  1  0
 26 42  1  0
 26 43  1  0
 26 44  1  0
 27 45  1  0
 28 46  1  0
 28 47  1  0
 28 48  1  0
M  END
>  <Name>  (642) 
Robustic Acid

>  <PubChem ID>  (642) 
54677407

>  <CDB ID>  (642) 
CDB0642

>  <Smiles>  (642) 
CC1(C=CC2=C(O1)C=C3C(=C2OC)C(=C(C(=O)O3)C4=CC=C(C=C4)OC)O)C

>  <Chemical class>  (642) 
4,5,7-Trioxygenated Coumarins

>  <Natural source>  (642) 
Derris robusta

>  <Molecular Formula>  (642) 
C22H20O6

>  <InChI-Key>  (642) 
MBZKDBQDALOSRP-UHFFFAOYSA-N

>  <Total Molweight>  (642) 
380.395

>  <cLogP>  (642) 
3.2571

>  <cLogS>  (642) 
-4.155

>  <H-Acceptors>  (642) 
6

>  <H-Donors>  (642) 
1

>  <Rotatable Bonds>  (642) 
3

>  <Polar Surface Area>  (642) 
74.22

$$$$
CDB0643
     RDKit          3D

 47 51  0  0  0  0  0  0  0  0999 V2000
   -5.9498   -2.1828   -1.1931 C   0  0  0  0  0  0  0  0  0  0  0  0
   -5.1929   -0.9760   -0.6255 C   0  0  0  0  0  0  0  0  0  0  0  0
   -4.6685   -0.1368   -1.7662 C   0  0  0  0  0  0  0  0  0  0  0  0
   -3.3876    0.2240   -1.8816 C   0  0  0  0  0  0  0  0  0  0  0  0
   -2.4487   -0.2044   -0.8500 C   0  0  0  0  0  0  0  0  0  0  0  0
   -2.9017   -1.0692    0.1498 C   0  0  0  0  0  0  0  0  0  0  0  0
   -4.1877   -1.5168    0.2555 O   0  0  0  0  0  0  0  0  0  0  0  0
   -2.0214   -1.5448    1.1175 C   0  0  0  0  0  0  0  0  0  0  0  0
   -0.6797   -1.1696    1.0707 C   0  0  0  0  0  0  0  0  0  0  0  0
   -0.1741   -0.3235    0.0889 C   0  0  0  0  0  0  0  0  0  0  0  0
   -1.0949    0.1992   -0.8428 C   0  0  0  0  0  0  0  0  0  0  0  0
   -0.6471    1.0911   -1.7982 O   0  0  0  0  0  0  0  0  0  0  0  0
   -0.8817    2.4365   -1.3532 C   0  0  0  0  0  0  0  0  0  0  0  0
    1.2748   -0.0584    0.1059 C   0  0  0  0  0  0  0  0  0  0  0  0
    2.0630   -0.5327    1.0896 C   0  0  0  0  0  0  0  0  0  0  0  0
    1.4859   -1.3507    2.1906 C   0  0  0  0  0  0  0  0  0  0  0  0
    2.1531   -1.7411    3.1431 O   0  0  0  0  0  0  0  0  0  0  0  0
    0.1416   -1.6799    2.0901 O   0  0  0  0  0  0  0  0  0  0  0  0
    3.5166   -0.2483    1.0929 C   0  0  0  0  0  0  0  0  0  0  0  0
    4.3476   -0.7635    0.0838 C   0  0  0  0  0  0  0  0  0  0  0  0
    5.6945   -0.4713    0.1386 C   0  0  0  0  0  0  0  0  0  0  0  0
    6.2304    0.2979    1.1440 C   0  0  0  0  0  0  0  0  0  0  0  0
    5.4505    0.8181    2.1528 C   0  0  0  0  0  0  0  0  0  0  0  0
    4.0795    0.5394    2.1242 C   0  0  0  0  0  0  0  0  0  0  0  0
    7.5734    0.4642    1.0112 O   0  0  0  0  0  0  0  0  0  0  0  0
    7.8223   -0.2938   -0.1906 C   0  0  0  0  0  0  0  0  0  0  0  0
    6.6337   -0.8863   -0.7537 O   0  0  0  0  0  0  0  0  0  0  0  0
    1.8082    0.6738   -0.9431 O   0  0  0  0  0  0  0  0  0  0  0  0
   -6.1379   -0.1335    0.2387 C   0  0  0  0  0  0  0  0  0  0  0  0
   -6.3437   -2.8116   -0.3859 H   0  0  0  0  0  0  0  0  0  0  0  0
   -6.7866   -1.8801   -1.8322 H   0  0  0  0  0  0  0  0  0  0  0  0
   -5.2804   -2.8216   -1.7819 H   0  0  0  0  0  0  0  0  0  0  0  0
   -5.3797    0.1850   -2.5228 H   0  0  0  0  0  0  0  0  0  0  0  0
   -3.0376    0.8161   -2.7194 H   0  0  0  0  0  0  0  0  0  0  0  0
   -2.3771   -2.2121    1.8979 H   0  0  0  0  0  0  0  0  0  0  0  0
   -0.4618    3.1108   -2.1054 H   0  0  0  0  0  0  0  0  0  0  0  0
   -1.9517    2.6500   -1.2654 H   0  0  0  0  0  0  0  0  0  0  0  0
   -0.3767    2.6331   -0.4010 H   0  0  0  0  0  0  0  0  0  0  0  0
    3.9526   -1.3702   -0.7237 H   0  0  0  0  0  0  0  0  0  0  0  0
    5.8854    1.4181    2.9437 H   0  0  0  0  0  0  0  0  0  0  0  0
    3.4473    0.9337    2.9176 H   0  0  0  0  0  0  0  0  0  0  0  0
    8.5365   -1.0926    0.0405 H   0  0  0  0  0  0  0  0  0  0  0  0
    8.2697    0.3717   -0.9379 H   0  0  0  0  0  0  0  0  0  0  0  0
    1.1259    0.7696   -1.6355 H   0  0  0  0  0  0  0  0  0  0  0  0
   -6.5388   -0.7256    1.0698 H   0  0  0  0  0  0  0  0  0  0  0  0
   -5.6052    0.7112    0.6919 H   0  0  0  0  0  0  0  0  0  0  0  0
   -6.9797    0.2623   -0.3400 H   0  0  0  0  0  0  0  0  0  0  0  0
  1  2  1  0
  2  3  1  0
  3  4  2  0
  4  5  1  0
  5  6  1  0
  6  7  1  0
  6  8  2  0
  8  9  1  0
  9 10  2  0
 10 11  1  0
 11 12  1  0
 12 13  1  0
 10 14  1  0
 14 15  2  0
 15 16  1  0
 16 17  2  0
 16 18  1  0
 15 19  1  0
 19 20  2  0
 20 21  1  0
 21 22  2  0
 22 23  1  0
 23 24  2  0
 22 25  1  0
 25 26  1  0
 26 27  1  0
 14 28  1  0
  2 29  1  0
  7  2  1  0
 11  5  2  0
 18  9  1  0
 24 19  1  0
 27 21  1  0
  1 30  1  0
  1 31  1  0
  1 32  1  0
  3 33  1  0
  4 34  1  0
  8 35  1  0
 13 36  1  0
 13 37  1  0
 13 38  1  0
 20 39  1  0
 23 40  1  0
 24 41  1  0
 26 42  1  0
 26 43  1  0
 28 44  1  0
 29 45  1  0
 29 46  1  0
 29 47  1  0
M  END
>  <Name>  (643) 
Robustin

>  <PubChem ID>  (643) 
54708253

>  <CDB ID>  (643) 
CDB0643

>  <Smiles>  (643) 
CC1(C=CC2=C(O1)C=C3C(=C2OC)C(=C(C(=O)O3)C4=CC5=C(C=C4)OCO5)O)C

>  <Chemical class>  (643) 
4,5,7-Trioxygenated Coumarins

>  <Natural source>  (643) 
Derris robusta

>  <Molecular Formula>  (643) 
C22H18O7

>  <InChI-Key>  (643) 
LCSCNPZJBMHOJH-UHFFFAOYSA-N

>  <Total Molweight>  (643) 
394.378

>  <cLogP>  (643) 
3.4385

>  <cLogS>  (643) 
-4.848

>  <H-Acceptors>  (643) 
7

>  <H-Donors>  (643) 
1

>  <Rotatable Bonds>  (643) 
2

>  <Polar Surface Area>  (643) 
83.45

$$$$
CDB0644
     RDKit          3D

 58 61  0  0  0  0  0  0  0  0999 V2000
   -4.9430   -2.4542    0.4863 C   0  0  0  0  0  0  0  0  0  0  0  0
   -4.0230   -1.8640   -0.5502 C   0  0  0  0  0  0  0  0  0  0  0  0
   -3.6759   -0.5627   -0.4953 C   0  0  0  0  0  0  0  0  0  0  0  0
   -2.7816    0.2098   -1.4315 C   0  0  0  0  0  0  0  0  0  0  0  0
   -1.4650    0.5975   -0.7821 C   0  0  0  0  0  0  0  0  0  0  0  0
   -1.4056    1.7143    0.0728 C   0  0  0  0  0  0  0  0  0  0  0  0
   -0.2184    2.0473    0.7280 C   0  0  0  0  0  0  0  0  0  0  0  0
    0.9070    1.2245    0.5464 C   0  0  0  0  0  0  0  0  0  0  0  0
    0.9010    0.0927   -0.2736 C   0  0  0  0  0  0  0  0  0  0  0  0
   -0.2968   -0.1793   -0.9719 C   0  0  0  0  0  0  0  0  0  0  0  0
   -0.3873   -1.2523   -1.8290 O   0  0  0  0  0  0  0  0  0  0  0  0
    0.0689   -0.8860   -3.1340 C   0  0  0  0  0  0  0  0  0  0  0  0
    2.1340   -0.7230   -0.3158 C   0  0  0  0  0  0  0  0  0  0  0  0
    3.2471   -0.3537    0.3494 C   0  0  0  0  0  0  0  0  0  0  0  0
    3.2604    0.8775    1.1770 C   0  0  0  0  0  0  0  0  0  0  0  0
    4.2572    1.2494    1.7874 O   0  0  0  0  0  0  0  0  0  0  0  0
    2.0800    1.5924    1.2447 O   0  0  0  0  0  0  0  0  0  0  0  0
    4.4762   -1.1707    0.2843 C   0  0  0  0  0  0  0  0  0  0  0  0
    4.8582   -1.9602    1.3784 C   0  0  0  0  0  0  0  0  0  0  0  0
    6.0051   -2.7553    1.3096 C   0  0  0  0  0  0  0  0  0  0  0  0
    6.7652   -2.7601    0.1446 C   0  0  0  0  0  0  0  0  0  0  0  0
    6.4007   -1.9832   -0.9487 C   0  0  0  0  0  0  0  0  0  0  0  0
    5.2577   -1.1855   -0.8804 C   0  0  0  0  0  0  0  0  0  0  0  0
    7.8897   -3.5220    0.0334 O   0  0  0  0  0  0  0  0  0  0  0  0
    2.0548   -1.8911   -1.0539 O   0  0  0  0  0  0  0  0  0  0  0  0
   -0.1789    3.2324    1.5796 C   0  0  0  0  0  0  0  0  0  0  0  0
   -1.3225    3.8788    1.8201 C   0  0  0  0  0  0  0  0  0  0  0  0
   -2.6440    3.4450    1.2389 C   0  0  0  0  0  0  0  0  0  0  0  0
   -2.5508    2.4578    0.1938 O   0  0  0  0  0  0  0  0  0  0  0  0
   -3.5315    2.8580    2.3424 C   0  0  0  0  0  0  0  0  0  0  0  0
   -3.3401    4.6562    0.6068 C   0  0  0  0  0  0  0  0  0  0  0  0
   -3.5492   -2.8474   -1.5841 C   0  0  0  0  0  0  0  0  0  0  0  0
   -5.8422   -2.8574    0.0091 H   0  0  0  0  0  0  0  0  0  0  0  0
   -5.2639   -1.7151    1.2280 H   0  0  0  0  0  0  0  0  0  0  0  0
   -4.4394   -3.2653    1.0224 H   0  0  0  0  0  0  0  0  0  0  0  0
   -4.0842    0.0447    0.3125 H   0  0  0  0  0  0  0  0  0  0  0  0
   -2.6131   -0.3264   -2.3682 H   0  0  0  0  0  0  0  0  0  0  0  0
   -3.3129    1.1163   -1.7500 H   0  0  0  0  0  0  0  0  0  0  0  0
    1.1025   -0.5248   -3.1238 H   0  0  0  0  0  0  0  0  0  0  0  0
   -0.5827   -0.1272   -3.5804 H   0  0  0  0  0  0  0  0  0  0  0  0
    0.0281   -1.7796   -3.7638 H   0  0  0  0  0  0  0  0  0  0  0  0
    4.2704   -1.9560    2.2943 H   0  0  0  0  0  0  0  0  0  0  0  0
    6.2870   -3.3556    2.1691 H   0  0  0  0  0  0  0  0  0  0  0  0
    7.0092   -1.9936   -1.8489 H   0  0  0  0  0  0  0  0  0  0  0  0
    4.9859   -0.5752   -1.7394 H   0  0  0  0  0  0  0  0  0  0  0  0
    8.0568   -3.9583    0.8851 H   0  0  0  0  0  0  0  0  0  0  0  0
    2.8509   -2.4323   -0.9182 H   0  0  0  0  0  0  0  0  0  0  0  0
    0.7582    3.5571    2.0182 H   0  0  0  0  0  0  0  0  0  0  0  0
   -1.3151    4.7445    2.4771 H   0  0  0  0  0  0  0  0  0  0  0  0
   -4.4998    2.5419    1.9369 H   0  0  0  0  0  0  0  0  0  0  0  0
   -3.0744    1.9617    2.7788 H   0  0  0  0  0  0  0  0  0  0  0  0
   -3.7128    3.5776    3.1483 H   0  0  0  0  0  0  0  0  0  0  0  0
   -4.3032    4.3683    0.1689 H   0  0  0  0  0  0  0  0  0  0  0  0
   -2.7399    5.0674   -0.2139 H   0  0  0  0  0  0  0  0  0  0  0  0
   -3.5192    5.4544    1.3356 H   0  0  0  0  0  0  0  0  0  0  0  0
   -3.0021   -3.6642   -1.1016 H   0  0  0  0  0  0  0  0  0  0  0  0
   -4.4063   -3.2742   -2.1158 H   0  0  0  0  0  0  0  0  0  0  0  0
   -2.8873   -2.4114   -2.3341 H   0  0  0  0  0  0  0  0  0  0  0  0
  1  2  1  0
  2  3  2  3
  3  4  1  0
  4  5  1  0
  5  6  2  0
  6  7  1  0
  7  8  2  0
  8  9  1  0
  9 10  2  0
 10 11  1  0
 11 12  1  0
  9 13  1  0
 13 14  2  0
 14 15  1  0
 15 16  2  0
 15 17  1  0
 14 18  1  0
 18 19  1  0
 19 20  2  0
 20 21  1  0
 21 22  2  0
 22 23  1  0
 21 24  1  0
 13 25  1  0
  7 26  1  0
 26 27  2  0
 27 28  1  0
 28 29  1  0
 28 30  1  0
 28 31  1  0
  2 32  1  0
 10  5  1  0
 29  6  1  0
 17  8  1  0
 23 18  2  0
  1 33  1  0
  1 34  1  0
  1 35  1  0
  3 36  1  0
  4 37  1  0
  4 38  1  0
 12 39  1  0
 12 40  1  0
 12 41  1  0
 19 42  1  0
 20 43  1  0
 22 44  1  0
 23 45  1  0
 24 46  1  0
 25 47  1  0
 26 48  1  0
 27 49  1  0
 30 50  1  0
 30 51  1  0
 30 52  1  0
 31 53  1  0
 31 54  1  0
 31 55  1  0
 32 56  1  0
 32 57  1  0
 32 58  1  0
M  END
>  <Name>  (644) 
Scandenin

>  <PubChem ID>  (644) 
54676535

>  <CDB ID>  (644) 
CDB0644

>  <Smiles>  (644) 
CC(=CCC1=C2C(=C3C(=C1OC)C(=C(C(=O)O3)C4=CC=C(C=C4)O)O)C=CC(O2)(C)C)C

>  <Chemical class>  (644) 
4,5,7-Trioxygenated Coumarins

>  <Natural source>  (644) 
Derris scandens

>  <Molecular Formula>  (644) 
C26H26O6

>  <InChI-Key>  (644) 
AAKJUGSASOCUFQ-UHFFFAOYSA-N

>  <Total Molweight>  (644) 
434.486

>  <cLogP>  (644) 
5.0039

>  <cLogS>  (644) 
-4.78

>  <H-Acceptors>  (644) 
6

>  <H-Donors>  (644) 
2

>  <Rotatable Bonds>  (644) 
4

>  <Polar Surface Area>  (644) 
85.22

$$$$
CDB0645
     RDKit          3D

 58 61  0  0  0  0  0  0  0  0999 V2000
   -4.8787    1.8274    0.1426 C   0  0  0  0  0  0  0  0  0  0  0  0
   -3.6211    2.5247    0.5803 C   0  0  0  0  0  0  0  0  0  0  0  0
   -2.3965    2.3324    0.0508 C   0  0  0  0  0  0  0  0  0  0  0  0
   -1.9972    1.4217   -1.0810 C   0  0  0  0  0  0  0  0  0  0  0  0
   -1.1082    0.2831   -0.6208 C   0  0  0  0  0  0  0  0  0  0  0  0
    0.2816    0.4663   -0.4742 C   0  0  0  0  0  0  0  0  0  0  0  0
    1.1511   -0.5379   -0.0380 C   0  0  0  0  0  0  0  0  0  0  0  0
    0.5742   -1.7942    0.2453 C   0  0  0  0  0  0  0  0  0  0  0  0
   -0.8228   -2.0028    0.1644 C   0  0  0  0  0  0  0  0  0  0  0  0
   -1.6508   -0.9667   -0.2844 C   0  0  0  0  0  0  0  0  0  0  0  0
   -3.0087   -1.0937   -0.4026 O   0  0  0  0  0  0  0  0  0  0  0  0
   -3.6295   -2.3792   -0.2200 C   0  0  0  0  0  0  0  0  0  0  0  0
   -2.7433   -3.4394    0.3790 C   0  0  0  0  0  0  0  0  0  0  0  0
   -1.4329   -3.2686    0.5671 C   0  0  0  0  0  0  0  0  0  0  0  0
   -4.8287   -2.1406    0.7053 C   0  0  0  0  0  0  0  0  0  0  0  0
   -4.1236   -2.8375   -1.5966 C   0  0  0  0  0  0  0  0  0  0  0  0
    1.3548   -2.8468    0.6748 O   0  0  0  0  0  0  0  0  0  0  0  0
    1.8169   -3.6059   -0.4456 C   0  0  0  0  0  0  0  0  0  0  0  0
    2.5802   -0.1868    0.1079 C   0  0  0  0  0  0  0  0  0  0  0  0
    3.0330    1.0508   -0.1776 C   0  0  0  0  0  0  0  0  0  0  0  0
    2.1116    2.0987   -0.6805 C   0  0  0  0  0  0  0  0  0  0  0  0
    2.4979    3.2212   -0.9887 O   0  0  0  0  0  0  0  0  0  0  0  0
    0.7791    1.7495   -0.7946 O   0  0  0  0  0  0  0  0  0  0  0  0
    4.4594    1.3929   -0.0112 C   0  0  0  0  0  0  0  0  0  0  0  0
    4.9771    1.6656    1.2633 C   0  0  0  0  0  0  0  0  0  0  0  0
    6.3330    1.9551    1.4218 C   0  0  0  0  0  0  0  0  0  0  0  0
    7.1675    1.9773    0.3104 C   0  0  0  0  0  0  0  0  0  0  0  0
    6.6707    1.7127   -0.9619 C   0  0  0  0  0  0  0  0  0  0  0  0
    5.3144    1.4183   -1.1221 C   0  0  0  0  0  0  0  0  0  0  0  0
    8.4838    2.2668    0.5126 O   0  0  0  0  0  0  0  0  0  0  0  0
    3.4049   -1.2024    0.5590 O   0  0  0  0  0  0  0  0  0  0  0  0
   -3.8189    3.4963    1.7149 C   0  0  0  0  0  0  0  0  0  0  0  0
   -5.3038    1.2620    0.9787 H   0  0  0  0  0  0  0  0  0  0  0  0
   -4.7290    1.1270   -0.6807 H   0  0  0  0  0  0  0  0  0  0  0  0
   -5.6200    2.5630   -0.1870 H   0  0  0  0  0  0  0  0  0  0  0  0
   -1.5657    2.9067    0.4619 H   0  0  0  0  0  0  0  0  0  0  0  0
   -2.8598    1.0294   -1.6277 H   0  0  0  0  0  0  0  0  0  0  0  0
   -1.4665    2.0188   -1.8340 H   0  0  0  0  0  0  0  0  0  0  0  0
   -3.2014   -4.3827    0.6644 H   0  0  0  0  0  0  0  0  0  0  0  0
   -0.8191   -4.0432    1.0127 H   0  0  0  0  0  0  0  0  0  0  0  0
   -5.5004   -1.3823    0.2864 H   0  0  0  0  0  0  0  0  0  0  0  0
   -4.5005   -1.7571    1.6790 H   0  0  0  0  0  0  0  0  0  0  0  0
   -5.4078   -3.0555    0.8726 H   0  0  0  0  0  0  0  0  0  0  0  0
   -3.2841   -2.9717   -2.2894 H   0  0  0  0  0  0  0  0  0  0  0  0
   -4.6766   -3.7816   -1.5405 H   0  0  0  0  0  0  0  0  0  0  0  0
   -4.7765   -2.0812   -2.0482 H   0  0  0  0  0  0  0  0  0  0  0  0
    2.3192   -2.9795   -1.1909 H   0  0  0  0  0  0  0  0  0  0  0  0
    2.5402   -4.3388   -0.0760 H   0  0  0  0  0  0  0  0  0  0  0  0
    0.9916   -4.1520   -0.9143 H   0  0  0  0  0  0  0  0  0  0  0  0
    4.3308    1.6591    2.1389 H   0  0  0  0  0  0  0  0  0  0  0  0
    6.7359    2.1705    2.4078 H   0  0  0  0  0  0  0  0  0  0  0  0
    7.3163    1.7335   -1.8344 H   0  0  0  0  0  0  0  0  0  0  0  0
    4.9290    1.2176   -2.1197 H   0  0  0  0  0  0  0  0  0  0  0  0
    8.9287    2.3176   -0.3495 H   0  0  0  0  0  0  0  0  0  0  0  0
    4.3166   -0.8807    0.6603 H   0  0  0  0  0  0  0  0  0  0  0  0
   -2.8851    3.9842    2.0138 H   0  0  0  0  0  0  0  0  0  0  0  0
   -4.5246    4.2809    1.4231 H   0  0  0  0  0  0  0  0  0  0  0  0
   -4.2179    2.9775    2.5928 H   0  0  0  0  0  0  0  0  0  0  0  0
  1  2  1  0
  2  3  2  3
  3  4  1  0
  4  5  1  0
  5  6  1  0
  6  7  2  0
  7  8  1  0
  8  9  2  0
  9 10  1  0
 10 11  1  0
 11 12  1  0
 12 13  1  0
 13 14  2  0
 12 15  1  0
 12 16  1  0
  8 17  1  0
 17 18  1  0
  7 19  1  0
 19 20  2  0
 20 21  1  0
 21 22  2  0
 21 23  1  0
 20 24  1  0
 24 25  1  0
 25 26  2  0
 26 27  1  0
 27 28  2  0
 28 29  1  0
 27 30  1  0
 19 31  1  0
  2 32  1  0
 10  5  2  0
 23  6  1  0
 14  9  1  0
 29 24  2  0
  1 33  1  0
  1 34  1  0
  1 35  1  0
  3 36  1  0
  4 37  1  0
  4 38  1  0
 13 39  1  0
 14 40  1  0
 15 41  1  0
 15 42  1  0
 15 43  1  0
 16 44  1  0
 16 45  1  0
 16 46  1  0
 18 47  1  0
 18 48  1  0
 18 49  1  0
 25 50  1  0
 26 51  1  0
 28 52  1  0
 29 53  1  0
 30 54  1  0
 31 55  1  0
 32 56  1  0
 32 57  1  0
 32 58  1  0
M  END
>  <Name>  (645) 
Lonchocarpic Acid

>  <PubChem ID>  (645) 
54683839

>  <CDB ID>  (645) 
CDB0645

>  <Smiles>  (645) 
CC(=CCC1=C2C(=C(C3=C1OC(C=C3)(C)C)OC)C(=C(C(=O)O2)C4=CC=C(C=C4)O)O)C

>  <Chemical class>  (645) 
4,5,7-Trioxygenated Coumarins

>  <Natural source>  (645) 
Lonchocarpus sp.

>  <Molecular Formula>  (645) 
C26H26O6

>  <InChI-Key>  (645) 
QKTFIWUHGFCLHF-UHFFFAOYSA-N

>  <Total Molweight>  (645) 
434.486

>  <cLogP>  (645) 
5.0039

>  <cLogS>  (645) 
-4.78

>  <H-Acceptors>  (645) 
6

>  <H-Donors>  (645) 
2

>  <Rotatable Bonds>  (645) 
4

>  <Polar Surface Area>  (645) 
85.22

$$$$
CDB0646
     RDKit          3D

 61 64  0  0  0  0  0  0  0  0999 V2000
   -3.8688   -3.7931   -0.9622 C   0  0  0  0  0  0  0  0  0  0  0  0
   -3.1017   -3.1221    0.1476 C   0  0  0  0  0  0  0  0  0  0  0  0
   -3.3181   -1.8239    0.4396 C   0  0  0  0  0  0  0  0  0  0  0  0
   -2.6598   -0.9782    1.4979 C   0  0  0  0  0  0  0  0  0  0  0  0
   -1.8177    0.1304    0.8984 C   0  0  0  0  0  0  0  0  0  0  0  0
   -0.4695   -0.0944    0.5575 C   0  0  0  0  0  0  0  0  0  0  0  0
    0.3521    0.8764   -0.0229 C   0  0  0  0  0  0  0  0  0  0  0  0
   -0.2272    2.1440   -0.2460 C   0  0  0  0  0  0  0  0  0  0  0  0
   -1.5917    2.3934    0.0321 C   0  0  0  0  0  0  0  0  0  0  0  0
   -2.3717    1.3880    0.6160 C   0  0  0  0  0  0  0  0  0  0  0  0
   -3.6997    1.5492    0.9103 O   0  0  0  0  0  0  0  0  0  0  0  0
   -4.2906    2.8604    0.8391 C   0  0  0  0  0  0  0  0  0  0  0  0
   -3.4838    3.8816    0.0804 C   0  0  0  0  0  0  0  0  0  0  0  0
   -2.2241    3.6673   -0.3064 C   0  0  0  0  0  0  0  0  0  0  0  0
   -5.6455    2.6701    0.1465 C   0  0  0  0  0  0  0  0  0  0  0  0
   -4.5097    3.3381    2.2789 C   0  0  0  0  0  0  0  0  0  0  0  0
    0.5085    3.1660   -0.8078 O   0  0  0  0  0  0  0  0  0  0  0  0
    1.1508    3.9299    0.2163 C   0  0  0  0  0  0  0  0  0  0  0  0
    1.7335    0.4798   -0.3710 C   0  0  0  0  0  0  0  0  0  0  0  0
    2.1884   -0.7668   -0.1318 C   0  0  0  0  0  0  0  0  0  0  0  0
    1.3232   -1.7794    0.5210 C   0  0  0  0  0  0  0  0  0  0  0  0
    1.7178   -2.9102    0.7858 O   0  0  0  0  0  0  0  0  0  0  0  0
    0.0370   -1.3836    0.8332 O   0  0  0  0  0  0  0  0  0  0  0  0
    3.5639   -1.1533   -0.5003 C   0  0  0  0  0  0  0  0  0  0  0  0
    3.8686   -1.5113   -1.8183 C   0  0  0  0  0  0  0  0  0  0  0  0
    5.1801   -1.8405   -2.1681 C   0  0  0  0  0  0  0  0  0  0  0  0
    6.2000   -1.8216   -1.2134 C   0  0  0  0  0  0  0  0  0  0  0  0
    5.8976   -1.4661    0.1013 C   0  0  0  0  0  0  0  0  0  0  0  0
    4.5854   -1.1322    0.4565 C   0  0  0  0  0  0  0  0  0  0  0  0
    7.4348   -2.1630   -1.6909 O   0  0  0  0  0  0  0  0  0  0  0  0
    8.4920   -2.2419   -0.7429 C   0  0  0  0  0  0  0  0  0  0  0  0
    2.5100    1.4619   -0.9609 O   0  0  0  0  0  0  0  0  0  0  0  0
   -2.1148   -4.0207    0.8412 C   0  0  0  0  0  0  0  0  0  0  0  0
   -3.1799   -4.1659   -1.7272 H   0  0  0  0  0  0  0  0  0  0  0  0
   -4.5729   -3.1128   -1.4528 H   0  0  0  0  0  0  0  0  0  0  0  0
   -4.4433   -4.6382   -0.5687 H   0  0  0  0  0  0  0  0  0  0  0  0
   -4.0655   -1.2827   -0.1418 H   0  0  0  0  0  0  0  0  0  0  0  0
   -3.4435   -0.5521    2.1371 H   0  0  0  0  0  0  0  0  0  0  0  0
   -2.0519   -1.5666    2.1915 H   0  0  0  0  0  0  0  0  0  0  0  0
   -3.9555    4.8329   -0.1511 H   0  0  0  0  0  0  0  0  0  0  0  0
   -1.6662    4.4133   -0.8611 H   0  0  0  0  0  0  0  0  0  0  0  0
   -6.2534    1.9268    0.6758 H   0  0  0  0  0  0  0  0  0  0  0  0
   -5.5126    2.2886   -0.8732 H   0  0  0  0  0  0  0  0  0  0  0  0
   -6.2150    3.6045    0.0929 H   0  0  0  0  0  0  0  0  0  0  0  0
   -5.0249    4.3042    2.3163 H   0  0  0  0  0  0  0  0  0  0  0  0
   -5.1010    2.6093    2.8458 H   0  0  0  0  0  0  0  0  0  0  0  0
   -3.5547    3.4375    2.8088 H   0  0  0  0  0  0  0  0  0  0  0  0
    1.8289    4.6368   -0.2709 H   0  0  0  0  0  0  0  0  0  0  0  0
    0.4180    4.5058    0.7913 H   0  0  0  0  0  0  0  0  0  0  0  0
    1.7427    3.3019    0.8911 H   0  0  0  0  0  0  0  0  0  0  0  0
    3.0926   -1.5418   -2.5805 H   0  0  0  0  0  0  0  0  0  0  0  0
    5.4094   -2.1218   -3.1935 H   0  0  0  0  0  0  0  0  0  0  0  0
    6.6569   -1.4408    0.8760 H   0  0  0  0  0  0  0  0  0  0  0  0
    4.3692   -0.8629    1.4885 H   0  0  0  0  0  0  0  0  0  0  0  0
    8.2780   -2.9898    0.0278 H   0  0  0  0  0  0  0  0  0  0  0  0
    9.3942   -2.5600   -1.2742 H   0  0  0  0  0  0  0  0  0  0  0  0
    8.6955   -1.2621   -0.2984 H   0  0  0  0  0  0  0  0  0  0  0  0
    3.3826    1.1062   -1.1999 H   0  0  0  0  0  0  0  0  0  0  0  0
   -2.6286   -4.8975    1.2494 H   0  0  0  0  0  0  0  0  0  0  0  0
   -1.3576   -4.3659    0.1293 H   0  0  0  0  0  0  0  0  0  0  0  0
   -1.5908   -3.5408    1.6695 H   0  0  0  0  0  0  0  0  0  0  0  0
  1  2  1  0
  2  3  2  3
  3  4  1  0
  4  5  1  0
  5  6  1  0
  6  7  2  0
  7  8  1  0
  8  9  2  0
  9 10  1  0
 10 11  1  0
 11 12  1  0
 12 13  1  0
 13 14  2  0
 12 15  1  0
 12 16  1  0
  8 17  1  0
 17 18  1  0
  7 19  1  0
 19 20  2  0
 20 21  1  0
 21 22  2  0
 21 23  1  0
 20 24  1  0
 24 25  1  0
 25 26  2  0
 26 27  1  0
 27 28  2  0
 28 29  1  0
 27 30  1  0
 30 31  1  0
 19 32  1  0
  2 33  1  0
 10  5  2  0
 23  6  1  0
 14  9  1  0
 29 24  2  0
  1 34  1  0
  1 35  1  0
  1 36  1  0
  3 37  1  0
  4 38  1  0
  4 39  1  0
 13 40  1  0
 14 41  1  0
 15 42  1  0
 15 43  1  0
 15 44  1  0
 16 45  1  0
 16 46  1  0
 16 47  1  0
 18 48  1  0
 18 49  1  0
 18 50  1  0
 25 51  1  0
 26 52  1  0
 28 53  1  0
 29 54  1  0
 31 55  1  0
 31 56  1  0
 31 57  1  0
 32 58  1  0
 33 59  1  0
 33 60  1  0
 33 61  1  0
M  END
>  <Name>  (646) 
Lonchocarpenin

>  <PubChem ID>  (646) 
54699185

>  <CDB ID>  (646) 
CDB0646

>  <Smiles>  (646) 
CC(=CCC1=C2C(=C(C3=C1OC(C=C3)(C)C)OC)C(=C(C(=O)O2)C4=CC=C(C=C4)OC)O)C

>  <Chemical class>  (646) 
4,5,7-Trioxygenated Coumarins

>  <Natural source>  (646) 
Derris scandens

>  <Molecular Formula>  (646) 
C27H28O6

>  <InChI-Key>  (646) 
CCYKXDPVYWRNMH-UHFFFAOYSA-N

>  <Total Molweight>  (646) 
448.513

>  <cLogP>  (646) 
5.2796

>  <cLogS>  (646) 
-5.094

>  <H-Acceptors>  (646) 
6

>  <H-Donors>  (646) 
1

>  <Rotatable Bonds>  (646) 
5

>  <Polar Surface Area>  (646) 
74.22

$$$$
CDB0647
     RDKit          3D

 29 32  0  0  0  0  0  0  0  0999 V2000
    4.4652   -0.1425    0.6561 C   0  0  0  0  0  0  0  0  0  0  0  0
    3.3614   -0.9693    0.9055 C   0  0  0  0  0  0  0  0  0  0  0  0
    2.0795   -0.5033    0.5621 C   0  0  0  0  0  0  0  0  0  0  0  0
    1.9636    0.7650   -0.0133 C   0  0  0  0  0  0  0  0  0  0  0  0
    3.0418    1.6093   -0.2733 C   0  0  0  0  0  0  0  0  0  0  0  0
    4.2980    1.1154    0.0798 C   0  0  0  0  0  0  0  0  0  0  0  0
    5.4251    1.8590   -0.1302 O   0  0  0  0  0  0  0  0  0  0  0  0
    0.6532    1.0553   -0.2818 O   0  0  0  0  0  0  0  0  0  0  0  0
   -0.0487   -0.0257    0.1233 C   0  0  0  0  0  0  0  0  0  0  0  0
    0.7566   -1.0045    0.6437 C   0  0  0  0  0  0  0  0  0  0  0  0
    0.1803   -2.2363    1.1291 C   0  0  0  0  0  0  0  0  0  0  0  0
    0.8431   -3.1506    1.6056 O   0  0  0  0  0  0  0  0  0  0  0  0
   -1.2338   -2.3268    1.0186 O   0  0  0  0  0  0  0  0  0  0  0  0
   -2.0516   -1.2889    0.4707 C   0  0  0  0  0  0  0  0  0  0  0  0
   -3.4231   -1.5069    0.4214 C   0  0  0  0  0  0  0  0  0  0  0  0
   -4.2163   -0.5004   -0.1100 C   0  0  0  0  0  0  0  0  0  0  0  0
   -3.6584    0.6941   -0.5808 C   0  0  0  0  0  0  0  0  0  0  0  0
   -2.2841    0.9107   -0.5305 C   0  0  0  0  0  0  0  0  0  0  0  0
   -1.4764   -0.0930    0.0011 C   0  0  0  0  0  0  0  0  0  0  0  0
   -4.5163    1.6316   -1.0884 O   0  0  0  0  0  0  0  0  0  0  0  0
   -5.5682   -0.6859   -0.1716 O   0  0  0  0  0  0  0  0  0  0  0  0
    5.4640   -0.4869    0.9154 H   0  0  0  0  0  0  0  0  0  0  0  0
    3.4985   -1.9495    1.3553 H   0  0  0  0  0  0  0  0  0  0  0  0
    2.8908    2.5819   -0.7211 H   0  0  0  0  0  0  0  0  0  0  0  0
    5.1730    2.7063   -0.5332 H   0  0  0  0  0  0  0  0  0  0  0  0
   -3.8636   -2.4290    0.7838 H   0  0  0  0  0  0  0  0  0  0  0  0
   -1.8419    1.8329   -0.8928 H   0  0  0  0  0  0  0  0  0  0  0  0
   -3.9961    2.4026   -1.3752 H   0  0  0  0  0  0  0  0  0  0  0  0
   -5.9158    0.1356   -0.5733 H   0  0  0  0  0  0  0  0  0  0  0  0
  1  2  1  0
  2  3  2  0
  3  4  1  0
  4  5  2  0
  5  6  1  0
  6  7  1  0
  4  8  1  0
  8  9  1  0
  9 10  2  0
 10 11  1  0
 11 12  2  0
 11 13  1  0
 13 14  1  0
 14 15  2  0
 15 16  1  0
 16 17  2  0
 17 18  1  0
 18 19  2  0
 17 20  1  0
 16 21  1  0
  6  1  2  0
 10  3  1  0
 19  9  1  0
 19 14  1  0
  1 22  1  0
  2 23  1  0
  5 24  1  0
  7 25  1  0
 15 26  1  0
 18 27  1  0
 20 28  1  0
 21 29  1  0
M  END
>  <Name>  (647) 
Lucernol

>  <PubChem ID>  (647) 
5748586

>  <CDB ID>  (647) 
CDB0647

>  <Smiles>  (647) 
C1=CC2=C(C=C1O)OC3=C2C(=O)OC4=CC(=C(C=C43)O)O

>  <Chemical class>  (647) 
4,6,7-Trioxygenated Coumarins

>  <Natural source>  (647) 
Medicago sativa

>  <Molecular Formula>  (647) 
C15H8O6

>  <InChI-Key>  (647) 
CJPXZAMCIOOMNF-UHFFFAOYSA-N

>  <Total Molweight>  (647) 
284.223

>  <cLogP>  (647) 
2.495

>  <cLogS>  (647) 
-4.049

>  <H-Acceptors>  (647) 
6

>  <H-Donors>  (647) 
3

>  <Rotatable Bonds>  (647) 
0

>  <Polar Surface Area>  (647) 
100.13

$$$$
CDB0648
     RDKit          3D

 32 35  0  0  0  0  0  0  0  0999 V2000
    5.7309    0.8950    0.0606 C   0  0  0  0  0  0  0  0  0  0  0  0
    4.9668   -0.1244    0.6960 O   0  0  0  0  0  0  0  0  0  0  0  0
    3.6083   -0.0792    0.5121 C   0  0  0  0  0  0  0  0  0  0  0  0
    2.8916   -1.1044    1.1570 C   0  0  0  0  0  0  0  0  0  0  0  0
    1.5051   -1.2086    1.0757 C   0  0  0  0  0  0  0  0  0  0  0  0
    0.8150   -0.2631    0.3300 C   0  0  0  0  0  0  0  0  0  0  0  0
    1.5241    0.7631   -0.3164 C   0  0  0  0  0  0  0  0  0  0  0  0
    2.9125    0.8689   -0.2360 C   0  0  0  0  0  0  0  0  0  0  0  0
    0.8334    1.7497   -1.0913 O   0  0  0  0  0  0  0  0  0  0  0  0
   -0.5782    1.7673   -1.2615 C   0  0  0  0  0  0  0  0  0  0  0  0
   -1.1270    2.6325   -1.9346 O   0  0  0  0  0  0  0  0  0  0  0  0
   -1.2914    0.7068   -0.5913 C   0  0  0  0  0  0  0  0  0  0  0  0
   -0.6064   -0.2247    0.1439 C   0  0  0  0  0  0  0  0  0  0  0  0
   -1.4268   -1.1418    0.7007 O   0  0  0  0  0  0  0  0  0  0  0  0
   -2.6908   -0.7911    0.3114 C   0  0  0  0  0  0  0  0  0  0  0  0
   -2.6595    0.3513   -0.4929 C   0  0  0  0  0  0  0  0  0  0  0  0
   -3.8760    0.8578   -0.9870 C   0  0  0  0  0  0  0  0  0  0  0  0
   -5.0683    0.1983   -0.6539 C   0  0  0  0  0  0  0  0  0  0  0  0
   -5.0450   -0.9394    0.1531 C   0  0  0  0  0  0  0  0  0  0  0  0
   -3.8572   -1.4664    0.6585 C   0  0  0  0  0  0  0  0  0  0  0  0
   -6.2020   -1.5878    0.4823 O   0  0  0  0  0  0  0  0  0  0  0  0
    3.5613   -2.0434    1.8958 O   0  0  0  0  0  0  0  0  0  0  0  0
    5.4607    1.8853    0.4415 H   0  0  0  0  0  0  0  0  0  0  0  0
    5.6249    0.8462   -1.0282 H   0  0  0  0  0  0  0  0  0  0  0  0
    6.7842    0.7213    0.3011 H   0  0  0  0  0  0  0  0  0  0  0  0
    0.9867   -2.0139    1.5872 H   0  0  0  0  0  0  0  0  0  0  0  0
    3.4071    1.6811   -0.7551 H   0  0  0  0  0  0  0  0  0  0  0  0
   -3.8934    1.7446   -1.6160 H   0  0  0  0  0  0  0  0  0  0  0  0
   -6.0059    0.5919   -1.0370 H   0  0  0  0  0  0  0  0  0  0  0  0
   -3.8393   -2.3492    1.2848 H   0  0  0  0  0  0  0  0  0  0  0  0
   -6.9504   -1.1248    0.0712 H   0  0  0  0  0  0  0  0  0  0  0  0
    4.5051   -1.7988    1.8284 H   0  0  0  0  0  0  0  0  0  0  0  0
  1  2  1  0
  2  3  1  0
  3  4  2  0
  4  5  1  0
  5  6  2  0
  6  7  1  0
  7  8  2  0
  7  9  1  0
  9 10  1  0
 10 11  2  0
 10 12  1  0
 12 13  2  0
 13 14  1  0
 14 15  1  0
 15 16  1  0
 16 17  2  0
 17 18  1  0
 18 19  2  0
 19 20  1  0
 19 21  1  0
  4 22  1  0
  8  3  1  0
 13  6  1  0
 16 12  1  0
 20 15  2  0
  1 23  1  0
  1 24  1  0
  1 25  1  0
  5 26  1  0
  8 27  1  0
 17 28  1  0
 18 29  1  0
 20 30  1  0
 21 31  1  0
 22 32  1  0
M  END
>  <Name>  (648) 
Melimessanol A

>  <PubChem ID>  (648) 
5319352

>  <CDB ID>  (648) 
CDB0648

>  <Smiles>  (648) 
COC1=C(C=C2C(=C1)OC(=O)C3=C2OC4=C3C=CC(=C4)O)O

>  <Chemical class>  (648) 
4,6,7-Trioxygenated Coumarins

>  <Natural source>  (648) 
Melilotus messanensis

>  <Molecular Formula>  (648) 
C16H10O6

>  <InChI-Key>  (648) 
DZTCHOVSMSHCHK-UHFFFAOYSA-N

>  <Total Molweight>  (648) 
298.249

>  <cLogP>  (648) 
2.7707

>  <cLogS>  (648) 
-4.363

>  <H-Acceptors>  (648) 
6

>  <H-Donors>  (648) 
2

>  <Rotatable Bonds>  (648) 
1

>  <Polar Surface Area>  (648) 
89.13

$$$$
CDB0649
     RDKit          3D

 34 38  0  0  0  0  0  0  0  0999 V2000
    4.6586    2.0877    0.6746 C   0  0  0  0  0  0  0  0  0  0  0  0
    4.9219    0.7148    0.4051 O   0  0  0  0  0  0  0  0  0  0  0  0
    3.8319   -0.0891    0.1853 C   0  0  0  0  0  0  0  0  0  0  0  0
    4.1393   -1.4370   -0.0768 C   0  0  0  0  0  0  0  0  0  0  0  0
    3.1544   -2.3862   -0.3213 C   0  0  0  0  0  0  0  0  0  0  0  0
    1.8332   -1.9649   -0.3005 C   0  0  0  0  0  0  0  0  0  0  0  0
    1.4952   -0.6260   -0.0418 C   0  0  0  0  0  0  0  0  0  0  0  0
    2.4954    0.3168    0.2022 C   0  0  0  0  0  0  0  0  0  0  0  0
    0.0872   -0.3497   -0.0551 C   0  0  0  0  0  0  0  0  0  0  0  0
   -0.9051   -1.2640   -0.2928 C   0  0  0  0  0  0  0  0  0  0  0  0
   -2.1264   -0.5480   -0.2064 C   0  0  0  0  0  0  0  0  0  0  0  0
   -3.4931   -0.8677   -0.3404 C   0  0  0  0  0  0  0  0  0  0  0  0
   -4.3878    0.1768   -0.1700 C   0  0  0  0  0  0  0  0  0  0  0  0
   -3.9883    1.4640    0.1149 C   0  0  0  0  0  0  0  0  0  0  0  0
   -2.6619    1.8276    0.2559 C   0  0  0  0  0  0  0  0  0  0  0  0
   -1.7600    0.7764    0.0845 C   0  0  0  0  0  0  0  0  0  0  0  0
   -0.3991    0.8888    0.1755 O   0  0  0  0  0  0  0  0  0  0  0  0
   -5.0446    2.3163    0.2376 O   0  0  0  0  0  0  0  0  0  0  0  0
   -6.1506    1.4221   -0.0016 C   0  0  0  0  0  0  0  0  0  0  0  0
   -5.7420    0.0641   -0.2608 O   0  0  0  0  0  0  0  0  0  0  0  0
   -0.5701   -2.6433   -0.5600 C   0  0  0  0  0  0  0  0  0  0  0  0
   -1.4077   -3.5105   -0.7803 O   0  0  0  0  0  0  0  0  0  0  0  0
    0.8194   -2.9409   -0.5519 O   0  0  0  0  0  0  0  0  0  0  0  0
    5.4452   -1.8484   -0.0963 O   0  0  0  0  0  0  0  0  0  0  0  0
    5.6199    2.5882    0.8256 H   0  0  0  0  0  0  0  0  0  0  0  0
    4.1625    2.5681   -0.1751 H   0  0  0  0  0  0  0  0  0  0  0  0
    4.0742    2.2041    1.5933 H   0  0  0  0  0  0  0  0  0  0  0  0
    3.4164   -3.4193   -0.5209 H   0  0  0  0  0  0  0  0  0  0  0  0
    2.2097    1.3445    0.3994 H   0  0  0  0  0  0  0  0  0  0  0  0
   -3.8312   -1.8739   -0.5643 H   0  0  0  0  0  0  0  0  0  0  0  0
   -2.3446    2.8360    0.4793 H   0  0  0  0  0  0  0  0  0  0  0  0
   -6.7177    1.7888   -0.8649 H   0  0  0  0  0  0  0  0  0  0  0  0
   -6.8046    1.4301    0.8779 H   0  0  0  0  0  0  0  0  0  0  0  0
    5.9702   -1.0464    0.0949 H   0  0  0  0  0  0  0  0  0  0  0  0
  1  2  1  0
  2  3  1  0
  3  4  2  0
  4  5  1  0
  5  6  2  0
  6  7  1  0
  7  8  2  0
  7  9  1  0
  9 10  2  0
 10 11  1  0
 11 12  2  0
 12 13  1  0
 13 14  2  0
 14 15  1  0
 15 16  2  0
 16 17  1  0
 14 18  1  0
 18 19  1  0
 19 20  1  0
 10 21  1  0
 21 22  2  0
 21 23  1  0
  4 24  1  0
  8  3  1  0
 23  6  1  0
 17  9  1  0
 16 11  1  0
 20 13  1  0
  1 25  1  0
  1 26  1  0
  1 27  1  0
  5 28  1  0
  8 29  1  0
 12 30  1  0
 15 31  1  0
 19 32  1  0
 19 33  1  0
 24 34  1  0
M  END
>  <Name>  (649) 
Tephrosol

>  <PubChem ID>  (649) 
14704585

>  <CDB ID>  (649) 
CDB0649

>  <Smiles>  (649) 
COC1=C(C=C2C(=C1)C3=C(C4=CC5=C(C=C4O3)OCO5)C(=O)O2)O

>  <Chemical class>  (649) 
4,6,7-Trioxygenated Coumarins

>  <Natural source>  (649) 
Tephrosia villosa

>  <Molecular Formula>  (649) 
C17H10O7

>  <InChI-Key>  (649) 
BNMBLJAZXHNNMI-UHFFFAOYSA-N

>  <Total Molweight>  (649) 
326.259

>  <cLogP>  (649) 
3.2278

>  <cLogS>  (649) 
-5.37

>  <H-Acceptors>  (649) 
7

>  <H-Donors>  (649) 
1

>  <Rotatable Bonds>  (649) 
1

>  <Polar Surface Area>  (649) 
87.36

$$$$
CDB0650
     RDKit          3D

 32 35  0  0  0  0  0  0  0  0999 V2000
    5.6405   -1.2918   -0.8116 C   0  0  0  0  0  0  0  0  0  0  0  0
    4.9079   -0.7072    0.2596 O   0  0  0  0  0  0  0  0  0  0  0  0
    3.5552   -0.5664    0.0781 C   0  0  0  0  0  0  0  0  0  0  0  0
    2.8750    0.0134    1.1579 C   0  0  0  0  0  0  0  0  0  0  0  0
    1.5010    0.2087    1.0938 C   0  0  0  0  0  0  0  0  0  0  0  0
    0.7818   -0.1704   -0.0471 C   0  0  0  0  0  0  0  0  0  0  0  0
    1.4480   -0.7473   -1.1255 C   0  0  0  0  0  0  0  0  0  0  0  0
    2.8354   -0.9450   -1.0620 C   0  0  0  0  0  0  0  0  0  0  0  0
   -0.6278    0.0855    0.0149 C   0  0  0  0  0  0  0  0  0  0  0  0
   -1.2902    0.6523    1.0716 C   0  0  0  0  0  0  0  0  0  0  0  0
   -2.6538    0.7083    0.6907 C   0  0  0  0  0  0  0  0  0  0  0  0
   -2.7056    0.1587   -0.5931 C   0  0  0  0  0  0  0  0  0  0  0  0
   -1.4577   -0.2233   -1.0056 O   0  0  0  0  0  0  0  0  0  0  0  0
   -3.8739    0.0232   -1.3413 C   0  0  0  0  0  0  0  0  0  0  0  0
   -5.0422    0.4788   -0.7296 C   0  0  0  0  0  0  0  0  0  0  0  0
   -5.0423    1.0344    0.5486 C   0  0  0  0  0  0  0  0  0  0  0  0
   -3.8510    1.1574    1.2767 C   0  0  0  0  0  0  0  0  0  0  0  0
   -6.2453    0.3947   -1.3726 O   0  0  0  0  0  0  0  0  0  0  0  0
   -0.5620    1.0482    2.2544 C   0  0  0  0  0  0  0  0  0  0  0  0
   -1.0954    1.5599    3.2323 O   0  0  0  0  0  0  0  0  0  0  0  0
    0.8343    0.8029    2.2117 O   0  0  0  0  0  0  0  0  0  0  0  0
    3.5666    0.3878    2.2776 O   0  0  0  0  0  0  0  0  0  0  0  0
    5.5744   -0.6777   -1.7157 H   0  0  0  0  0  0  0  0  0  0  0  0
    5.3081   -2.3173   -1.0031 H   0  0  0  0  0  0  0  0  0  0  0  0
    6.6924   -1.3328   -0.5131 H   0  0  0  0  0  0  0  0  0  0  0  0
    0.8998   -1.0455   -2.0164 H   0  0  0  0  0  0  0  0  0  0  0  0
    3.3216   -1.3973   -1.9209 H   0  0  0  0  0  0  0  0  0  0  0  0
   -3.8520   -0.4107   -2.3314 H   0  0  0  0  0  0  0  0  0  0  0  0
   -5.9773    1.3766    0.9865 H   0  0  0  0  0  0  0  0  0  0  0  0
   -3.8570    1.5916    2.2734 H   0  0  0  0  0  0  0  0  0  0  0  0
   -6.1070   -0.0074   -2.2461 H   0  0  0  0  0  0  0  0  0  0  0  0
    4.4986    0.1580    2.0973 H   0  0  0  0  0  0  0  0  0  0  0  0
  1  2  1  0
  2  3  1  0
  3  4  1  0
  4  5  2  0
  5  6  1  0
  6  7  2  0
  7  8  1  0
  6  9  1  0
  9 10  2  0
 10 11  1  0
 11 12  1  0
 12 13  1  0
 12 14  2  0
 14 15  1  0
 15 16  2  0
 16 17  1  0
 15 18  1  0
 10 19  1  0
 19 20  2  0
 19 21  1  0
  4 22  1  0
  8  3  2  0
 21  5  1  0
 13  9  1  0
 17 11  2  0
  1 23  1  0
  1 24  1  0
  1 25  1  0
  7 26  1  0
  8 27  1  0
 14 28  1  0
 16 29  1  0
 17 30  1  0
 18 31  1  0
 22 32  1  0
M  END
>  <Name>  (650) 
Sativol

>  <PubChem ID>  (650) 
3084009

>  <CDB ID>  (650) 
CDB0650

>  <Smiles>  (650) 
COC1=C(C2=C(C=C1)C3=C(C4=C(O3)C=C(C=C4)O)C(=O)O2)O

>  <Chemical class>  (650) 
4,7,8-Trioxygenated Coumarins

>  <Natural source>  (650) 
Medicago sativa

>  <Molecular Formula>  (650) 
C16H10O6

>  <InChI-Key>  (650) 
YLRNDYZYIUVEDH-UHFFFAOYSA-N

>  <Total Molweight>  (650) 
298.249

>  <cLogP>  (650) 
2.7707

>  <cLogS>  (650) 
-4.363

>  <H-Acceptors>  (650) 
6

>  <H-Donors>  (650) 
2

>  <Rotatable Bonds>  (650) 
1

>  <Polar Surface Area>  (650) 
89.13

$$$$
CDB0651
     RDKit          3D

 45 48  0  0  0  0  0  0  0  0999 V2000
    6.5168   -0.9604    0.6480 C   0  0  0  0  0  0  0  0  0  0  0  0
    5.7156   -0.8298   -0.6176 C   0  0  0  0  0  0  0  0  0  0  0  0
    4.4739   -1.3189   -0.8073 C   0  0  0  0  0  0  0  0  0  0  0  0
    3.6240   -2.1090    0.1536 C   0  0  0  0  0  0  0  0  0  0  0  0
    2.3940   -1.3439    0.5961 C   0  0  0  0  0  0  0  0  0  0  0  0
    1.2504   -1.3495   -0.2322 C   0  0  0  0  0  0  0  0  0  0  0  0
    0.1105   -0.6224    0.1554 C   0  0  0  0  0  0  0  0  0  0  0  0
    0.1533    0.0881    1.3551 C   0  0  0  0  0  0  0  0  0  0  0  0
    1.2578    0.1268    2.2017 C   0  0  0  0  0  0  0  0  0  0  0  0
    2.3764   -0.6056    1.7899 C   0  0  0  0  0  0  0  0  0  0  0  0
    3.4955   -0.6107    2.5797 O   0  0  0  0  0  0  0  0  0  0  0  0
   -1.0327    0.7343    1.5766 O   0  0  0  0  0  0  0  0  0  0  0  0
   -1.8154    0.4308    0.5174 C   0  0  0  0  0  0  0  0  0  0  0  0
   -1.1802   -0.3872   -0.3790 C   0  0  0  0  0  0  0  0  0  0  0  0
   -1.8625   -0.8165   -1.5755 C   0  0  0  0  0  0  0  0  0  0  0  0
   -1.3523   -1.5473   -2.4171 O   0  0  0  0  0  0  0  0  0  0  0  0
   -3.1860   -0.3290   -1.7165 O   0  0  0  0  0  0  0  0  0  0  0  0
   -3.8406    0.5313   -0.7639 C   0  0  0  0  0  0  0  0  0  0  0  0
   -3.1527    0.9345    0.3932 C   0  0  0  0  0  0  0  0  0  0  0  0
   -3.7809    1.7634    1.3127 C   0  0  0  0  0  0  0  0  0  0  0  0
   -5.0910    2.1824    1.0680 C   0  0  0  0  0  0  0  0  0  0  0  0
   -5.7719    1.7740   -0.0927 C   0  0  0  0  0  0  0  0  0  0  0  0
   -5.1552    0.9371   -1.0335 C   0  0  0  0  0  0  0  0  0  0  0  0
   -5.6719    0.4526   -2.2026 O   0  0  0  0  0  0  0  0  0  0  0  0
   -6.9968    0.8088   -2.5643 C   0  0  0  0  0  0  0  0  0  0  0  0
   -7.0529    2.2214   -0.2694 O   0  0  0  0  0  0  0  0  0  0  0  0
    6.4142   -0.0683   -1.7139 C   0  0  0  0  0  0  0  0  0  0  0  0
    7.4483   -1.5003    0.4478 H   0  0  0  0  0  0  0  0  0  0  0  0
    6.7710    0.0323    1.0347 H   0  0  0  0  0  0  0  0  0  0  0  0
    5.9955   -1.4933    1.4449 H   0  0  0  0  0  0  0  0  0  0  0  0
    3.9991   -1.1499   -1.7739 H   0  0  0  0  0  0  0  0  0  0  0  0
    3.3034   -3.0294   -0.3528 H   0  0  0  0  0  0  0  0  0  0  0  0
    4.1840   -2.4627    1.0238 H   0  0  0  0  0  0  0  0  0  0  0  0
    1.2466   -1.9076   -1.1663 H   0  0  0  0  0  0  0  0  0  0  0  0
    1.2294    0.6965    3.1206 H   0  0  0  0  0  0  0  0  0  0  0  0
    3.3569   -0.0104    3.3302 H   0  0  0  0  0  0  0  0  0  0  0  0
   -3.2647    2.0858    2.2136 H   0  0  0  0  0  0  0  0  0  0  0  0
   -5.5706    2.8313    1.7964 H   0  0  0  0  0  0  0  0  0  0  0  0
   -7.2178    0.3255   -3.5214 H   0  0  0  0  0  0  0  0  0  0  0  0
   -7.7230    0.4313   -1.8377 H   0  0  0  0  0  0  0  0  0  0  0  0
   -7.0906    1.8881   -2.7194 H   0  0  0  0  0  0  0  0  0  0  0  0
   -7.3077    2.7853    0.4792 H   0  0  0  0  0  0  0  0  0  0  0  0
    7.3489   -0.5691   -1.9866 H   0  0  0  0  0  0  0  0  0  0  0  0
    6.6479    0.9481   -1.3801 H   0  0  0  0  0  0  0  0  0  0  0  0
    5.8040    0.0119   -2.6198 H   0  0  0  0  0  0  0  0  0  0  0  0
  1  2  1  0
  2  3  2  3
  3  4  1  0
  4  5  1  0
  5  6  1  0
  6  7  2  0
  7  8  1  0
  8  9  2  0
  9 10  1  0
 10 11  1  0
  8 12  1  0
 12 13  1  0
 13 14  2  0
 14 15  1  0
 15 16  2  0
 15 17  1  0
 17 18  1  0
 18 19  1  0
 19 20  2  0
 20 21  1  0
 21 22  2  0
 22 23  1  0
 23 24  1  0
 24 25  1  0
 22 26  1  0
  2 27  1  0
 10  5  2  0
 14  7  1  0
 19 13  1  0
 23 18  2  0
  1 28  1  0
  1 29  1  0
  1 30  1  0
  3 31  1  0
  4 32  1  0
  4 33  1  0
  6 34  1  0
  9 35  1  0
 11 36  1  0
 20 37  1  0
 21 38  1  0
 25 39  1  0
 25 40  1  0
 25 41  1  0
 26 42  1  0
 27 43  1  0
 27 44  1  0
 27 45  1  0
M  END
>  <Name>  (651) 
Puerarostan

>  <PubChem ID>  (651) 
14188404

>  <CDB ID>  (651) 
CDB0651

>  <Smiles>  (651) 
CC(=CCC1=CC2=C(C=C1O)OC3=C2C(=O)OC4=C3C=CC(=C4OC)O)C

>  <Chemical class>  (651) 
4,7,8-Trioxygenated Coumarins

>  <Natural source>  (651) 
Pueraria tuberosa

>  <Molecular Formula>  (651) 
C21H18O6

>  <InChI-Key>  (651) 
HTBLUBGREJMDMP-UHFFFAOYSA-N

>  <Total Molweight>  (651) 
366.368

>  <cLogP>  (651) 
4.7932

>  <cLogS>  (651) 
-5.302

>  <H-Acceptors>  (651) 
6

>  <H-Donors>  (651) 
2

>  <Rotatable Bonds>  (651) 
3

>  <Polar Surface Area>  (651) 
89.13

$$$$
CDB0652
     RDKit          3D

 34 38  0  0  0  0  0  0  0  0999 V2000
   -5.6848    1.1446   -0.1346 C   0  0  0  0  0  0  0  0  0  0  0  0
   -4.2751    1.2179    0.0081 O   0  0  0  0  0  0  0  0  0  0  0  0
   -3.5272    0.1053   -0.2588 C   0  0  0  0  0  0  0  0  0  0  0  0
   -3.9692   -1.1591   -0.6729 C   0  0  0  0  0  0  0  0  0  0  0  0
   -3.0569   -2.2037   -0.9054 C   0  0  0  0  0  0  0  0  0  0  0  0
   -1.6851   -2.0068   -0.7291 C   0  0  0  0  0  0  0  0  0  0  0  0
   -1.2273   -0.7618   -0.3195 C   0  0  0  0  0  0  0  0  0  0  0  0
   -2.1459    0.2761   -0.0895 C   0  0  0  0  0  0  0  0  0  0  0  0
   -1.6679    1.5671    0.3356 O   0  0  0  0  0  0  0  0  0  0  0  0
   -0.3027    1.8834    0.5468 C   0  0  0  0  0  0  0  0  0  0  0  0
    0.0514    2.9995    0.9092 O   0  0  0  0  0  0  0  0  0  0  0  0
    0.6189    0.7996    0.3035 C   0  0  0  0  0  0  0  0  0  0  0  0
    0.1491   -0.4219   -0.1002 C   0  0  0  0  0  0  0  0  0  0  0  0
    1.1423   -1.3192   -0.2820 O   0  0  0  0  0  0  0  0  0  0  0  0
    2.3019   -0.6560    0.0148 C   0  0  0  0  0  0  0  0  0  0  0  0
    3.5794   -1.2151   -0.0420 C   0  0  0  0  0  0  0  0  0  0  0  0
    4.5947   -0.3431    0.3046 C   0  0  0  0  0  0  0  0  0  0  0  0
    4.3679    0.9645    0.6741 C   0  0  0  0  0  0  0  0  0  0  0  0
    3.0998    1.5205    0.7308 C   0  0  0  0  0  0  0  0  0  0  0  0
    2.0289    0.6707    0.3861 C   0  0  0  0  0  0  0  0  0  0  0  0
    5.5214    1.6255    0.9698 O   0  0  0  0  0  0  0  0  0  0  0  0
    6.4988    0.5899    0.7455 C   0  0  0  0  0  0  0  0  0  0  0  0
    5.9196   -0.6617    0.3235 O   0  0  0  0  0  0  0  0  0  0  0  0
   -5.2985   -1.4211   -0.8649 O   0  0  0  0  0  0  0  0  0  0  0  0
   -5.9699    0.9389   -1.1710 H   0  0  0  0  0  0  0  0  0  0  0  0
   -6.0931    2.1273    0.1228 H   0  0  0  0  0  0  0  0  0  0  0  0
   -6.1187    0.4226    0.5642 H   0  0  0  0  0  0  0  0  0  0  0  0
   -3.4012   -3.1836   -1.2265 H   0  0  0  0  0  0  0  0  0  0  0  0
   -0.9894   -2.8221   -0.9120 H   0  0  0  0  0  0  0  0  0  0  0  0
    3.7527   -2.2413   -0.3324 H   0  0  0  0  0  0  0  0  0  0  0  0
    2.9449    2.5532    1.0247 H   0  0  0  0  0  0  0  0  0  0  0  0
    7.1996    0.9296   -0.0257 H   0  0  0  0  0  0  0  0  0  0  0  0
    7.0536    0.4234    1.6760 H   0  0  0  0  0  0  0  0  0  0  0  0
   -5.4116   -2.3429   -1.1489 H   0  0  0  0  0  0  0  0  0  0  0  0
  1  2  1  0
  2  3  1  0
  3  4  1  0
  4  5  2  0
  5  6  1  0
  6  7  2  0
  7  8  1  0
  8  9  1  0
  9 10  1  0
 10 11  2  0
 10 12  1  0
 12 13  2  0
 13 14  1  0
 14 15  1  0
 15 16  2  0
 16 17  1  0
 17 18  2  0
 18 19  1  0
 19 20  2  0
 18 21  1  0
 21 22  1  0
 22 23  1  0
  4 24  1  0
  8  3  2  0
 13  7  1  0
 20 12  1  0
 20 15  1  0
 23 17  1  0
  1 25  1  0
  1 26  1  0
  1 27  1  0
  5 28  1  0
  6 29  1  0
 16 30  1  0
 19 31  1  0
 22 32  1  0
 22 33  1  0
 24 34  1  0
M  END
>  <Name>  (652) 
Sophoracoumestan B

>  <PubChem ID>  (652) 
11131193

>  <CDB ID>  (652) 
CDB0652

>  <Smiles>  (652) 
COC1=C(C=CC2=C1OC(=O)C3=C2OC4=CC5=C(C=C43)OCO5)O

>  <Chemical class>  (652) 
4,7,8-Trioxygenated Coumarins

>  <Natural source>  (652) 
Sophora franchetiana

>  <Molecular Formula>  (652) 
C17H10O7

>  <InChI-Key>  (652) 
WFBFYJLFWIJBFD-UHFFFAOYSA-N

>  <Total Molweight>  (652) 
326.259

>  <cLogP>  (652) 
3.2278

>  <cLogS>  (652) 
-5.37

>  <H-Acceptors>  (652) 
7

>  <H-Donors>  (652) 
1

>  <Rotatable Bonds>  (652) 
1

>  <Polar Surface Area>  (652) 
87.36

$$$$
CDB0653
     RDKit          3D

 23 24  0  0  0  0  0  0  0  0999 V2000
   -3.5830    0.9602    0.3526 C   0  0  0  0  0  0  0  0  0  0  0  0
   -2.9023   -0.2902    0.3396 O   0  0  0  0  0  0  0  0  0  0  0  0
   -1.5387   -0.2475    0.1976 C   0  0  0  0  0  0  0  0  0  0  0  0
   -0.9058   -1.4995    0.1660 C   0  0  0  0  0  0  0  0  0  0  0  0
    0.4820   -1.6119    0.0306 C   0  0  0  0  0  0  0  0  0  0  0  0
    1.2683   -0.4629   -0.0930 C   0  0  0  0  0  0  0  0  0  0  0  0
    2.7126   -0.4813   -0.2973 C   0  0  0  0  0  0  0  0  0  0  0  0
    3.3894    0.6674   -0.3927 C   0  0  0  0  0  0  0  0  0  0  0  0
    2.7342    1.9820   -0.3015 C   0  0  0  0  0  0  0  0  0  0  0  0
    3.3879    3.0160   -0.3669 O   0  0  0  0  0  0  0  0  0  0  0  0
    1.3557    1.9809   -0.1470 O   0  0  0  0  0  0  0  0  0  0  0  0
    0.6242    0.7764   -0.0491 C   0  0  0  0  0  0  0  0  0  0  0  0
   -0.7615    0.9024    0.0944 C   0  0  0  0  0  0  0  0  0  0  0  0
    1.0352   -2.8647    0.0197 O   0  0  0  0  0  0  0  0  0  0  0  0
   -1.6672   -2.6350    0.2894 O   0  0  0  0  0  0  0  0  0  0  0  0
   -3.4368    1.4989   -0.5894 H   0  0  0  0  0  0  0  0  0  0  0  0
   -4.6529    0.7564    0.4576 H   0  0  0  0  0  0  0  0  0  0  0  0
   -3.2736    1.5678    1.2093 H   0  0  0  0  0  0  0  0  0  0  0  0
    3.2267   -1.4300   -0.4003 H   0  0  0  0  0  0  0  0  0  0  0  0
    4.4606    0.6872   -0.5543 H   0  0  0  0  0  0  0  0  0  0  0  0
   -1.1908    1.8977    0.1188 H   0  0  0  0  0  0  0  0  0  0  0  0
    1.8256   -2.8463    0.5820 H   0  0  0  0  0  0  0  0  0  0  0  0
   -2.5899   -2.3237    0.3509 H   0  0  0  0  0  0  0  0  0  0  0  0
  1  2  1  0
  2  3  1  0
  3  4  1  0
  4  5  2  0
  5  6  1  0
  6  7  1  0
  7  8  2  0
  8  9  1  0
  9 10  2  0
  9 11  1  0
 11 12  1  0
 12 13  1  0
  5 14  1  0
  4 15  1  0
 13  3  2  0
 12  6  2  0
  1 16  1  0
  1 17  1  0
  1 18  1  0
  7 19  1  0
  8 20  1  0
 13 21  1  0
 14 22  1  0
 15 23  1  0
M  END
>  <Name>  (653) 
Isofraxetin

>  <PubChem ID>  (653) 
10104491

>  <CDB ID>  (653) 
CDB0653

>  <Smiles>  (653) 
COC1=C(C(=C2C=CC(=O)OC2=C1)O)O

>  <Chemical class>  (653) 
5,6,7-Trioxygenated Coumarins

>  <Natural source>  (653) 
Fraxinus potamophila

>  <Molecular Formula>  (653) 
C10H8O5

>  <InChI-Key>  (653) 
ICFLIFNKWPXOAM-UHFFFAOYSA-N

>  <Total Molweight>  (653) 
208.169

>  <cLogP>  (653) 
0.736

>  <cLogS>  (653) 
-1.796

>  <H-Acceptors>  (653) 
5

>  <H-Donors>  (653) 
2

>  <Rotatable Bonds>  (653) 
1

>  <Polar Surface Area>  (653) 
75.99

$$$$
CDB0654
     RDKit          3D

 26 27  0  0  0  0  0  0  0  0999 V2000
    3.7689   -0.3719    0.7118 C   0  0  0  0  0  0  0  0  0  0  0  0
    2.5825   -1.1443    0.5565 O   0  0  0  0  0  0  0  0  0  0  0  0
    1.4430   -0.4623    0.2015 C   0  0  0  0  0  0  0  0  0  0  0  0
    0.2935   -1.2687    0.0593 C   0  0  0  0  0  0  0  0  0  0  0  0
   -0.9504   -0.7232   -0.2995 C   0  0  0  0  0  0  0  0  0  0  0  0
   -1.0288    0.6672   -0.5181 C   0  0  0  0  0  0  0  0  0  0  0  0
   -2.2670    1.3482   -0.8952 C   0  0  0  0  0  0  0  0  0  0  0  0
   -2.2829    2.6699   -1.0899 C   0  0  0  0  0  0  0  0  0  0  0  0
   -1.0798    3.5013   -0.9393 C   0  0  0  0  0  0  0  0  0  0  0  0
   -1.1229    4.7117   -1.1240 O   0  0  0  0  0  0  0  0  0  0  0  0
    0.0890    2.8454   -0.5815 O   0  0  0  0  0  0  0  0  0  0  0  0
    0.1206    1.4491   -0.3725 C   0  0  0  0  0  0  0  0  0  0  0  0
    1.3535    0.9066   -0.0166 C   0  0  0  0  0  0  0  0  0  0  0  0
   -2.1328   -1.3987   -0.4679 O   0  0  0  0  0  0  0  0  0  0  0  0
   -2.1578   -2.8043   -0.2703 C   0  0  0  0  0  0  0  0  0  0  0  0
    0.4546   -2.6139    0.2901 O   0  0  0  0  0  0  0  0  0  0  0  0
    3.6585    0.3624    1.5165 H   0  0  0  0  0  0  0  0  0  0  0  0
    4.5766   -1.0547    0.9923 H   0  0  0  0  0  0  0  0  0  0  0  0
    4.0515    0.1099   -0.2299 H   0  0  0  0  0  0  0  0  0  0  0  0
   -3.1716    0.7606   -1.0139 H   0  0  0  0  0  0  0  0  0  0  0  0
   -3.1886    3.1938   -1.3695 H   0  0  0  0  0  0  0  0  0  0  0  0
    2.2046    1.5708    0.0789 H   0  0  0  0  0  0  0  0  0  0  0  0
   -1.9126   -3.0656    0.7637 H   0  0  0  0  0  0  0  0  0  0  0  0
   -1.5173   -3.3195   -0.9928 H   0  0  0  0  0  0  0  0  0  0  0  0
   -3.1830   -3.1426   -0.4522 H   0  0  0  0  0  0  0  0  0  0  0  0
    1.3986   -2.7274    0.5189 H   0  0  0  0  0  0  0  0  0  0  0  0
  1  2  1  0
  2  3  1  0
  3  4  1  0
  4  5  2  0
  5  6  1  0
  6  7  1  0
  7  8  2  0
  8  9  1  0
  9 10  2  0
  9 11  1  0
 11 12  1  0
 12 13  1  0
  5 14  1  0
 14 15  1  0
  4 16  1  0
 13  3  2  0
 12  6  2  0
  1 17  1  0
  1 18  1  0
  1 19  1  0
  7 20  1  0
  8 21  1  0
 13 22  1  0
 15 23  1  0
 15 24  1  0
 15 25  1  0
 16 26  1  0
M  END
>  <Name>  (654) 
Fraxinol

>  <PubChem ID>  (654) 
3047739

>  <CDB ID>  (654) 
CDB0654

>  <Smiles>  (654) 
COC1=C(C(=C2C=CC(=O)OC2=C1)OC)O

>  <Chemical class>  (654) 
5,6,7-Trioxygenated Coumarins

>  <Natural source>  (654) 
Fraxinus excelsior

>  <Molecular Formula>  (654) 
C11H10O5

>  <InChI-Key>  (654) 
PBPNOAHYDPHKFH-UHFFFAOYSA-N

>  <Total Molweight>  (654) 
222.195

>  <cLogP>  (654) 
1.0117

>  <cLogS>  (654) 
-2.11

>  <H-Acceptors>  (654) 
5

>  <H-Donors>  (654) 
1

>  <Rotatable Bonds>  (654) 
2

>  <Polar Surface Area>  (654) 
64.99

$$$$
CDB0655
     RDKit          3D

 26 27  0  0  0  0  0  0  0  0999 V2000
   -0.8694    2.5533    0.0446 C   0  0  0  0  0  0  0  0  0  0  0  0
   -0.4626    1.5211    0.9479 O   0  0  0  0  0  0  0  0  0  0  0  0
   -0.2452    0.3518    0.2594 C   0  0  0  0  0  0  0  0  0  0  0  0
   -1.3145   -0.4695   -0.1295 C   0  0  0  0  0  0  0  0  0  0  0  0
   -1.0588   -1.6166   -0.8888 C   0  0  0  0  0  0  0  0  0  0  0  0
    0.2362   -1.9954   -1.2094 C   0  0  0  0  0  0  0  0  0  0  0  0
    1.2889   -1.2008   -0.7629 C   0  0  0  0  0  0  0  0  0  0  0  0
    1.0759   -0.0316   -0.0272 C   0  0  0  0  0  0  0  0  0  0  0  0
    2.2420    0.7352    0.3980 C   0  0  0  0  0  0  0  0  0  0  0  0
    3.4705    0.3192    0.0770 C   0  0  0  0  0  0  0  0  0  0  0  0
    3.7112   -0.9043   -0.7053 C   0  0  0  0  0  0  0  0  0  0  0  0
    4.8514   -1.2529   -0.9878 O   0  0  0  0  0  0  0  0  0  0  0  0
    2.5923   -1.6254   -1.0963 O   0  0  0  0  0  0  0  0  0  0  0  0
   -2.0909   -2.4023   -1.3221 O   0  0  0  0  0  0  0  0  0  0  0  0
   -2.6367   -0.2143    0.1421 O   0  0  0  0  0  0  0  0  0  0  0  0
   -2.8844   -0.0235    1.5368 C   0  0  0  0  0  0  0  0  0  0  0  0
   -1.8592    2.3492   -0.3761 H   0  0  0  0  0  0  0  0  0  0  0  0
   -0.9304    3.4864    0.6125 H   0  0  0  0  0  0  0  0  0  0  0  0
   -0.1360    2.6925   -0.7576 H   0  0  0  0  0  0  0  0  0  0  0  0
    0.4215   -2.8941   -1.7888 H   0  0  0  0  0  0  0  0  0  0  0  0
    2.0935    1.6369    0.9824 H   0  0  0  0  0  0  0  0  0  0  0  0
    4.3554    0.8648    0.3815 H   0  0  0  0  0  0  0  0  0  0  0  0
   -2.9060   -1.9495   -1.0306 H   0  0  0  0  0  0  0  0  0  0  0  0
   -3.9117   -0.3440    1.7360 H   0  0  0  0  0  0  0  0  0  0  0  0
   -2.2195   -0.6229    2.1694 H   0  0  0  0  0  0  0  0  0  0  0  0
   -2.8134    1.0367    1.7949 H   0  0  0  0  0  0  0  0  0  0  0  0
  1  2  1  0
  2  3  1  0
  3  4  2  0
  4  5  1  0
  5  6  2  0
  6  7  1  0
  7  8  2  0
  8  9  1  0
  9 10  2  0
 10 11  1  0
 11 12  2  0
 11 13  1  0
  5 14  1  0
  4 15  1  0
 15 16  1  0
  8  3  1  0
 13  7  1  0
  1 17  1  0
  1 18  1  0
  1 19  1  0
  6 20  1  0
  9 21  1  0
 10 22  1  0
 14 23  1  0
 16 24  1  0
 16 25  1  0
 16 26  1  0
M  END
>  <Name>  (655) 
Umckalin

>  <PubChem ID>  (655) 
5316862

>  <CDB ID>  (655) 
CDB0655

>  <Smiles>  (655) 
COC1=C(C(=CC2=C1C=CC(=O)O2)O)OC

>  <Chemical class>  (655) 
5,6,7-Trioxygenated Coumarins

>  <Natural source>  (655) 
Pelargonium reniforme

>  <Molecular Formula>  (655) 
C11H10O5

>  <InChI-Key>  (655) 
DVBPETFXQYSHLJ-UHFFFAOYSA-N

>  <Total Molweight>  (655) 
222.195

>  <cLogP>  (655) 
1.0117

>  <cLogS>  (655) 
-2.11

>  <H-Acceptors>  (655) 
5

>  <H-Donors>  (655) 
1

>  <Rotatable Bonds>  (655) 
2

>  <Polar Surface Area>  (655) 
64.99

$$$$
CDB0656
     RDKit          3D

 47 49  0  0  0  0  0  0  0  0999 V2000
    1.4681   -2.9663   -2.0906 C   0  0  0  0  0  0  0  0  0  0  0  0
    0.9531   -1.6852   -1.7511 O   0  0  0  0  0  0  0  0  0  0  0  0
    1.7589   -0.8698   -0.9988 C   0  0  0  0  0  0  0  0  0  0  0  0
    1.1432    0.2620   -0.4334 C   0  0  0  0  0  0  0  0  0  0  0  0
    1.8950    1.2028    0.2951 C   0  0  0  0  0  0  0  0  0  0  0  0
    3.2520    0.9671    0.5474 C   0  0  0  0  0  0  0  0  0  0  0  0
    4.0882    1.8601    1.3415 C   0  0  0  0  0  0  0  0  0  0  0  0
    5.3816    1.5796    1.5252 C   0  0  0  0  0  0  0  0  0  0  0  0
    6.0188    0.3855    0.9472 C   0  0  0  0  0  0  0  0  0  0  0  0
    7.2099    0.1603    1.1265 O   0  0  0  0  0  0  0  0  0  0  0  0
    5.2075   -0.4543    0.1974 O   0  0  0  0  0  0  0  0  0  0  0  0
    3.8381   -0.1729   -0.0005 C   0  0  0  0  0  0  0  0  0  0  0  0
    3.1189   -1.0836   -0.7770 C   0  0  0  0  0  0  0  0  0  0  0  0
    1.3262    2.3383    0.8223 O   0  0  0  0  0  0  0  0  0  0  0  0
    0.8614    3.2202   -0.2015 C   0  0  0  0  0  0  0  0  0  0  0  0
   -0.2019    0.4458   -0.6523 O   0  0  0  0  0  0  0  0  0  0  0  0
   -0.9817    0.1841    0.5302 C   0  0  0  0  0  0  0  0  0  0  0  0
   -1.3775   -1.3168    0.6035 C   0  0  0  0  0  0  0  0  0  0  0  0
   -2.7776   -1.4608    1.2000 C   0  0  0  0  0  0  0  0  0  0  0  0
   -3.8149   -0.6945    0.3682 C   0  0  0  0  0  0  0  0  0  0  0  0
   -3.1781    0.5318   -0.3098 C   0  0  0  0  0  0  0  0  0  0  0  0
   -2.1375    1.0554    0.5124 O   0  0  0  0  0  0  0  0  0  0  0  0
   -4.2290    1.6133   -0.5709 C   0  0  0  0  0  0  0  0  0  0  0  0
   -5.2977    1.0817   -1.3518 O   0  0  0  0  0  0  0  0  0  0  0  0
   -4.3730   -1.5750   -0.6221 O   0  0  0  0  0  0  0  0  0  0  0  0
   -3.1201   -2.8554    1.2764 O   0  0  0  0  0  0  0  0  0  0  0  0
   -0.4519   -2.0632    1.4151 O   0  0  0  0  0  0  0  0  0  0  0  0
    1.7802   -3.5205   -1.1990 H   0  0  0  0  0  0  0  0  0  0  0  0
    2.2881   -2.8794   -2.8106 H   0  0  0  0  0  0  0  0  0  0  0  0
    0.6638   -3.5328   -2.5697 H   0  0  0  0  0  0  0  0  0  0  0  0
    3.6400    2.7443    1.7823 H   0  0  0  0  0  0  0  0  0  0  0  0
    6.0265    2.2210    2.1131 H   0  0  0  0  0  0  0  0  0  0  0  0
    3.6441   -1.9379   -1.1890 H   0  0  0  0  0  0  0  0  0  0  0  0
   -0.1705    2.9844   -0.4754 H   0  0  0  0  0  0  0  0  0  0  0  0
    1.5061    3.2092   -1.0881 H   0  0  0  0  0  0  0  0  0  0  0  0
    0.8722    4.2354    0.2070 H   0  0  0  0  0  0  0  0  0  0  0  0
   -0.4281    0.4605    1.4359 H   0  0  0  0  0  0  0  0  0  0  0  0
   -1.3484   -1.7794   -0.3898 H   0  0  0  0  0  0  0  0  0  0  0  0
   -2.7644   -1.0828    2.2296 H   0  0  0  0  0  0  0  0  0  0  0  0
   -4.6380   -0.4075    1.0335 H   0  0  0  0  0  0  0  0  0  0  0  0
   -2.7701    0.2403   -1.2882 H   0  0  0  0  0  0  0  0  0  0  0  0
   -4.6341    2.0021    0.3698 H   0  0  0  0  0  0  0  0  0  0  0  0
   -3.7777    2.4549   -1.1078 H   0  0  0  0  0  0  0  0  0  0  0  0
   -5.8874    1.8300   -1.5600 H   0  0  0  0  0  0  0  0  0  0  0  0
   -4.9777   -1.0142   -1.1561 H   0  0  0  0  0  0  0  0  0  0  0  0
   -3.6910   -3.0133    0.4922 H   0  0  0  0  0  0  0  0  0  0  0  0
   -0.9135   -2.9044    1.6103 H   0  0  0  0  0  0  0  0  0  0  0  0
  1  2  1  0
  2  3  1  0
  3  4  1  0
  4  5  2  0
  5  6  1  0
  6  7  1  0
  7  8  2  0
  8  9  1  0
  9 10  2  0
  9 11  1  0
 11 12  1  0
 12 13  1  0
  5 14  1  0
 14 15  1  0
  4 16  1  0
 16 17  1  0
 17 18  1  0
 18 19  1  0
 19 20  1  0
 20 21  1  0
 21 22  1  0
 21 23  1  0
 23 24  1  0
 20 25  1  0
 19 26  1  0
 18 27  1  0
 13  3  2  0
 12  6  2  0
 22 17  1  0
  1 28  1  0
  1 29  1  0
  1 30  1  0
  7 31  1  0
  8 32  1  0
 13 33  1  0
 15 34  1  0
 15 35  1  0
 15 36  1  0
 17 37  1  0
 18 38  1  0
 19 39  1  0
 20 40  1  0
 21 41  1  0
 23 42  1  0
 23 43  1  0
 24 44  1  0
 25 45  1  0
 26 46  1  0
 27 47  1  0
M  END
>  <Name>  (656) 
Mandshurin

>  <PubChem ID>  (656) 
11740722

>  <CDB ID>  (656) 
CDB0656

>  <Smiles>  (656) 
COC1=C(C(=C2C=CC(=O)OC2=C1)OC)OC3C(C(C(C(O3)CO)O)O)O

>  <Chemical class>  (656) 
5,6,7-Trioxygenated Coumarins

>  <Natural source>  (656) 
Fraxinus mandshurica var. japonica

>  <Molecular Formula>  (656) 
C17H20O10

>  <InChI-Key>  (656) 
VVZGWJFMILUWOO-UHFFFAOYSA-N

>  <Total Molweight>  (656) 
384.336

>  <cLogP>  (656) 
-0.9776

>  <cLogS>  (656) 
-1.996

>  <H-Acceptors>  (656) 
10

>  <H-Donors>  (656) 
4

>  <Rotatable Bonds>  (656) 
5

>  <Polar Surface Area>  (656) 
144.14

$$$$
CDB0657
     RDKit          3D

 35 37  0  0  0  0  0  0  0  0999 V2000
   -4.1706    1.1915    1.3501 C   0  0  0  0  0  0  0  0  0  0  0  0
   -4.1817    0.2072    0.1869 C   0  0  0  0  0  0  0  0  0  0  0  0
   -4.4315    0.9095   -1.1421 C   0  0  0  0  0  0  0  0  0  0  0  0
   -2.9011   -0.6223    0.1166 C   0  0  0  0  0  0  0  0  0  0  0  0
   -2.9715   -1.8459   -0.0255 O   0  0  0  0  0  0  0  0  0  0  0  0
   -1.5651    0.1198    0.1898 C   0  0  0  0  0  0  0  0  0  0  0  0
   -0.4917   -0.7785   -0.0572 O   0  0  0  0  0  0  0  0  0  0  0  0
    0.7873   -0.2852   -0.0164 C   0  0  0  0  0  0  0  0  0  0  0  0
    1.8217   -1.2284   -0.2498 C   0  0  0  0  0  0  0  0  0  0  0  0
    1.5598   -2.6410   -0.5154 C   0  0  0  0  0  0  0  0  0  0  0  0
    2.5752   -3.4831   -0.7283 C   0  0  0  0  0  0  0  0  0  0  0  0
    3.9809   -3.0468   -0.7081 C   0  0  0  0  0  0  0  0  0  0  0  0
    4.8872   -3.8470   -0.9088 O   0  0  0  0  0  0  0  0  0  0  0  0
    4.2159   -1.7043   -0.4538 O   0  0  0  0  0  0  0  0  0  0  0  0
    3.1563   -0.8112   -0.2286 C   0  0  0  0  0  0  0  0  0  0  0  0
    3.4487    0.5114    0.0192 C   0  0  0  0  0  0  0  0  0  0  0  0
    2.4426    1.4171    0.2441 C   0  0  0  0  0  0  0  0  0  0  0  0
    1.1083    1.0565    0.2337 C   0  0  0  0  0  0  0  0  0  0  0  0
    2.9154    2.6732    0.4702 O   0  0  0  0  0  0  0  0  0  0  0  0
    4.3383    2.4524    0.3620 C   0  0  0  0  0  0  0  0  0  0  0  0
    4.6807    1.0826    0.0754 O   0  0  0  0  0  0  0  0  0  0  0  0
   -3.4365    1.9902    1.1991 H   0  0  0  0  0  0  0  0  0  0  0  0
   -5.1531    1.6610    1.4670 H   0  0  0  0  0  0  0  0  0  0  0  0
   -3.9234    0.6840    2.2887 H   0  0  0  0  0  0  0  0  0  0  0  0
   -5.0021   -0.5015    0.3610 H   0  0  0  0  0  0  0  0  0  0  0  0
   -5.4110    1.3991   -1.1431 H   0  0  0  0  0  0  0  0  0  0  0  0
   -3.6739    1.6738   -1.3449 H   0  0  0  0  0  0  0  0  0  0  0  0
   -4.4089    0.1945   -1.9716 H   0  0  0  0  0  0  0  0  0  0  0  0
   -1.4723    0.5395    1.1969 H   0  0  0  0  0  0  0  0  0  0  0  0
   -1.5721    0.9058   -0.5720 H   0  0  0  0  0  0  0  0  0  0  0  0
    0.5321   -2.9913   -0.5353 H   0  0  0  0  0  0  0  0  0  0  0  0
    2.4098   -4.5350   -0.9269 H   0  0  0  0  0  0  0  0  0  0  0  0
    0.3640    1.8206    0.4178 H   0  0  0  0  0  0  0  0  0  0  0  0
    4.7316    3.0887   -0.4391 H   0  0  0  0  0  0  0  0  0  0  0  0
    4.8108    2.7432    1.3073 H   0  0  0  0  0  0  0  0  0  0  0  0
  1  2  1  0
  2  3  1  0
  2  4  1  0
  4  5  2  0
  4  6  1  0
  6  7  1  0
  7  8  1  0
  8  9  2  0
  9 10  1  0
 10 11  2  0
 11 12  1  0
 12 13  2  0
 12 14  1  0
 14 15  1  0
 15 16  2  0
 16 17  1  0
 17 18  2  0
 17 19  1  0
 19 20  1  0
 20 21  1  0
 18  8  1  0
 15  9  1  0
 21 16  1  0
  1 22  1  0
  1 23  1  0
  1 24  1  0
  2 25  1  0
  3 26  1  0
  3 27  1  0
  3 28  1  0
  6 29  1  0
  6 30  1  0
 10 31  1  0
 11 32  1  0
 18 33  1  0
 20 34  1  0
 20 35  1  0
M  END
>  <Name>  (657) 
Sabandinone

>  <PubChem ID>  (657) 
3084572

>  <CDB ID>  (657) 
CDB0657

>  <Smiles>  (657) 
CC(C)C(=O)COC1=C2C=CC(=O)OC2=C3C(=C1)OCO3

>  <Chemical class>  (657) 
5,6,7-Trioxygenated Coumarins

>  <Natural source>  (657) 
Ruta pinnata

>  <Molecular Formula>  (657) 
C15H14O6

>  <InChI-Key>  (657) 
YVJYYBSLUKPNBK-UHFFFAOYSA-N

>  <Total Molweight>  (657) 
290.27

>  <cLogP>  (657) 
2.0192

>  <cLogS>  (657) 
-3.751

>  <H-Acceptors>  (657) 
6

>  <H-Donors>  (657) 
0

>  <Rotatable Bonds>  (657) 
4

>  <Polar Surface Area>  (657) 
71.06

$$$$
CDB0658
     RDKit          3D

 38 40  0  0  0  0  0  0  0  0999 V2000
   -2.4735    0.7673   -1.1213 C   0  0  0  0  0  0  0  0  0  0  0  0
   -3.0809   -0.2844   -0.1880 C   0  0  0  0  0  0  0  0  0  0  0  0
   -4.5644    0.0397    0.0477 C   0  0  0  0  0  0  0  0  0  0  0  0
   -3.0086   -1.5473   -0.8684 O   0  0  0  0  0  0  0  0  0  0  0  0
   -2.3223   -0.3796    1.1733 C   0  0  1  0  0  0  0  0  0  0  0  0
   -3.0277   -1.2748    2.0528 O   0  0  0  0  0  0  0  0  0  0  0  0
   -0.8586   -0.8467    1.0446 C   0  0  0  0  0  0  0  0  0  0  0  0
   -0.0465    0.2529    0.6289 O   0  0  0  0  0  0  0  0  0  0  0  0
    1.2622    0.0065    0.3119 C   0  0  0  0  0  0  0  0  0  0  0  0
    1.9604    1.0649   -0.3101 C   0  0  0  0  0  0  0  0  0  0  0  0
    1.3414    2.3550   -0.6100 C   0  0  0  0  0  0  0  0  0  0  0  0
    2.0452    3.3220   -1.2054 C   0  0  0  0  0  0  0  0  0  0  0  0
    3.4554    3.1526   -1.5871 C   0  0  0  0  0  0  0  0  0  0  0  0
    4.0712    4.0604   -2.1327 O   0  0  0  0  0  0  0  0  0  0  0  0
    4.0365    1.9273   -1.2971 O   0  0  0  0  0  0  0  0  0  0  0  0
    3.3096    0.8931   -0.6690 C   0  0  0  0  0  0  0  0  0  0  0  0
    3.9988   -0.2915   -0.4287 C   0  0  0  0  0  0  0  0  0  0  0  0
    3.2958   -1.3010    0.1872 C   0  0  0  0  0  0  0  0  0  0  0  0
    1.9693   -1.1663    0.5532 C   0  0  0  0  0  0  0  0  0  0  0  0
    1.5159   -2.2996    1.1626 O   0  0  0  0  0  0  0  0  0  0  0  0
    2.6728   -3.1537    1.1053 C   0  0  0  0  0  0  0  0  0  0  0  0
    3.8144   -2.5184    0.5060 O   0  0  0  0  0  0  0  0  0  0  0  0
   -2.4017    1.7453   -0.6351 H   0  0  0  0  0  0  0  0  0  0  0  0
   -1.4810    0.4673   -1.4721 H   0  0  0  0  0  0  0  0  0  0  0  0
   -3.0813    0.8802   -2.0269 H   0  0  0  0  0  0  0  0  0  0  0  0
   -5.0663   -0.7649    0.5964 H   0  0  0  0  0  0  0  0  0  0  0  0
   -5.1012    0.1342   -0.9036 H   0  0  0  0  0  0  0  0  0  0  0  0
   -4.6863    0.9747    0.6040 H   0  0  0  0  0  0  0  0  0  0  0  0
   -3.6521   -1.5344   -1.5968 H   0  0  0  0  0  0  0  0  0  0  0  0
   -2.3451    0.6087    1.6502 H   0  0  0  0  0  0  0  0  0  0  0  0
   -2.5490   -1.2984    2.8983 H   0  0  0  0  0  0  0  0  0  0  0  0
   -0.7912   -1.6811    0.3372 H   0  0  0  0  0  0  0  0  0  0  0  0
   -0.5154   -1.1882    2.0285 H   0  0  0  0  0  0  0  0  0  0  0  0
    0.3029    2.5132   -0.3401 H   0  0  0  0  0  0  0  0  0  0  0  0
    1.6073    4.2853   -1.4370 H   0  0  0  0  0  0  0  0  0  0  0  0
    5.0383   -0.4132   -0.7084 H   0  0  0  0  0  0  0  0  0  0  0  0
    2.9344   -3.4586    2.1249 H   0  0  0  0  0  0  0  0  0  0  0  0
    2.4212   -4.0488    0.5248 H   0  0  0  0  0  0  0  0  0  0  0  0
  1  2  1  0
  2  3  1  0
  2  4  1  0
  2  5  1  0
  5  6  1  0
  5  7  1  0
  7  8  1  0
  8  9  1  0
  9 10  1  0
 10 11  1  0
 11 12  2  0
 12 13  1  0
 13 14  2  0
 13 15  1  0
 15 16  1  0
 16 17  1  0
 17 18  2  0
 18 19  1  0
 19 20  1  0
 20 21  1  0
 21 22  1  0
 19  9  2  0
 16 10  2  0
 22 18  1  0
  1 23  1  0
  1 24  1  0
  1 25  1  0
  3 26  1  0
  3 27  1  0
  3 28  1  0
  4 29  1  0
  5 30  1  1
  6 31  1  0
  7 32  1  0
  7 33  1  0
 11 34  1  0
 12 35  1  0
 17 36  1  0
 21 37  1  0
 21 38  1  0
M  END
>  <Name>  (658) 
Sabandinol

>  <PubChem ID>  (658) 
179597

>  <CDB ID>  (658) 
CDB0658

>  <Smiles>  (658) 
CC(C)(O)[C@@H](O)COC1=C2C=CC(=O)OC2=CC2=C1OCO2

>  <Chemical class>  (658) 
5,6,7-Trioxygenated Coumarins

>  <Natural source>  (658) 
Ruta pinnata, Pterocaulon balansae

>  <Molecular Formula>  (658) 
C15H16O7

>  <InChI-Key>  (658) 
RDPGEFVUMRTSBB-NSHDSACASA-N

>  <Total Molweight>  (658) 
308.285

>  <cLogP>  (658) 
1.1909

>  <cLogS>  (658) 
-3.25

>  <H-Acceptors>  (658) 
7

>  <H-Donors>  (658) 
2

>  <Rotatable Bonds>  (658) 
4

>  <Polar Surface Area>  (658) 
94.45

$$$$
CDB0659
     RDKit          3D

 50 53  0  0  0  0  0  0  0  0999 V2000
   -3.7998   -3.2333   -0.2650 C   0  0  0  0  0  0  0  0  0  0  0  0
   -4.5678   -2.1594    0.2683 O   0  0  0  0  0  0  0  0  0  0  0  0
   -3.9781   -0.9198    0.2604 C   0  0  0  0  0  0  0  0  0  0  0  0
   -2.7073   -0.6212   -0.2269 C   0  0  0  0  0  0  0  0  0  0  0  0
   -2.2105    0.6914   -0.1623 C   0  0  0  0  0  0  0  0  0  0  0  0
   -3.0216    1.7145    0.3626 C   0  0  0  0  0  0  0  0  0  0  0  0
   -4.3005    1.4331    0.8509 C   0  0  0  0  0  0  0  0  0  0  0  0
   -4.7591    0.1120    0.7992 C   0  0  0  0  0  0  0  0  0  0  0  0
   -6.0114   -0.1918    1.2794 O   0  0  0  0  0  0  0  0  0  0  0  0
   -5.1584    2.3539    1.3899 O   0  0  0  0  0  0  0  0  0  0  0  0
   -4.7703    3.7187    1.3567 C   0  0  0  0  0  0  0  0  0  0  0  0
   -0.8215    1.0246   -0.7003 C   0  0  0  0  0  0  0  0  0  0  0  0
    0.1464    2.3135    0.3434 C   0  0  0  0  0  0  0  0  0  0  0  0
    2.0107    2.2280    0.2890 O   0  0  0  0  0  0  0  0  0  0  0  0
    2.6288    0.6572   -0.0707 C   0  0  0  0  0  0  0  0  0  0  0  0
    3.9865    0.5222    0.1150 C   0  0  0  0  0  0  0  0  0  0  0  0
    4.9007    1.5461    0.5710 C   0  0  0  0  0  0  0  0  0  0  0  0
    6.1969    1.2495    0.7059 C   0  0  0  0  0  0  0  0  0  0  0  0
    6.7398   -0.0884    0.4092 C   0  0  0  0  0  0  0  0  0  0  0  0
    7.9341   -0.3253    0.5467 O   0  0  0  0  0  0  0  0  0  0  0  0
    5.8358   -1.0500   -0.0252 O   0  0  0  0  0  0  0  0  0  0  0  0
    4.4512   -0.7608   -0.1800 C   0  0  0  0  0  0  0  0  0  0  0  0
    3.6445   -1.8572   -0.6356 C   0  0  0  0  0  0  0  0  0  0  0  0
    2.2542   -1.7598   -0.8523 C   0  0  0  0  0  0  0  0  0  0  0  0
    1.6746   -0.5248   -0.5952 C   0  0  0  0  0  0  0  0  0  0  0  0
    0.1392   -0.4523   -0.8882 O   0  0  0  0  0  0  0  0  0  0  0  0
    1.4403   -2.7687   -1.2763 O   0  0  0  0  0  0  0  0  0  0  0  0
    2.0624   -3.9877   -1.6579 C   0  0  0  0  0  0  0  0  0  0  0  0
    0.5768    1.0799    0.6817 C   0  0  0  0  0  0  0  0  0  0  0  0
    1.0122    1.4409   -1.1235 O   0  0  0  0  0  0  0  0  0  0  0  0
   -4.3997   -4.1447   -0.1821 H   0  0  0  0  0  0  0  0  0  0  0  0
   -3.5824   -3.0737   -1.3263 H   0  0  0  0  0  0  0  0  0  0  0  0
   -2.8812   -3.3862    0.3109 H   0  0  0  0  0  0  0  0  0  0  0  0
   -2.0795   -1.3946   -0.6602 H   0  0  0  0  0  0  0  0  0  0  0  0
   -2.6409    2.7301    0.3749 H   0  0  0  0  0  0  0  0  0  0  0  0
   -6.1144   -1.1505    1.1300 H   0  0  0  0  0  0  0  0  0  0  0  0
   -5.5878    4.3103    1.7798 H   0  0  0  0  0  0  0  0  0  0  0  0
   -3.8822    3.8901    1.9736 H   0  0  0  0  0  0  0  0  0  0  0  0
   -4.6095    4.0605    0.3288 H   0  0  0  0  0  0  0  0  0  0  0  0
   -0.9472    1.3706   -1.7438 H   0  0  0  0  0  0  0  0  0  0  0  0
    0.1300    3.1503   -0.3661 H   0  0  0  0  0  0  0  0  0  0  0  0
    4.5207    2.5365    0.7947 H   0  0  0  0  0  0  0  0  0  0  0  0
    6.9175    1.9847    1.0432 H   0  0  0  0  0  0  0  0  0  0  0  0
    4.1647   -2.7959   -0.8126 H   0  0  0  0  0  0  0  0  0  0  0  0
    1.2822   -4.6599   -2.0278 H   0  0  0  0  0  0  0  0  0  0  0  0
    2.7793   -3.8306   -2.4707 H   0  0  0  0  0  0  0  0  0  0  0  0
    2.5381   -4.4717   -0.7987 H   0  0  0  0  0  0  0  0  0  0  0  0
    1.3278    1.0385    1.5097 H   0  0  0  0  0  0  0  0  0  0  0  0
   -0.1186    0.2631    0.9561 H   0  0  0  0  0  0  0  0  0  0  0  0
    1.6544    2.1884   -1.1273 H   0  0  0  0  0  0  0  0  0  0  0  0
  1  2  1  0
  2  3  1  0
  3  4  2  0
  4  5  1  0
  5  6  2  0
  6  7  1  0
  7  8  2  0
  8  9  1  0
  7 10  1  0
 10 11  1  0
  5 12  1  0
 12 13  1  0
 13 14  1  0
 14 15  1  0
 15 16  1  0
 16 17  1  0
 17 18  2  0
 18 19  1  0
 19 20  2  0
 19 21  1  0
 21 22  1  0
 22 23  1  0
 23 24  2  0
 24 25  1  0
 25 26  1  0
 24 27  1  0
 27 28  1  0
 13 29  1  0
 29 30  1  0
  8  3  1  0
 26 12  1  0
 25 15  2  0
 22 16  2  0
  1 31  1  0
  1 32  1  0
  1 33  1  0
  4 34  1  0
  6 35  1  0
  9 36  1  0
 11 37  1  0
 11 38  1  0
 11 39  1  0
 12 40  1  0
 13 41  1  0
 17 42  1  0
 18 43  1  0
 23 44  1  0
 28 45  1  0
 28 46  1  0
 28 47  1  0
 29 48  1  0
 29 49  1  0
 30 50  1  0
M  END
>  <Name>  (659) 
Aleuritin

>  <PubChem ID>  (659) 
139031048

>  <CDB ID>  (659) 
CDB0659

>  <Smiles>  (659) 
COC1=CC(=CC(=C1O)OC)C2C(OC3=C4C=CC(=O)OC4=CC(=C3O2)OC)CO

>  <Chemical class>  (659) 
5,6,7-Trioxygenated Coumarins

>  <Natural source>  (659) 
Aleurites fordii

>  <Molecular Formula>  (659) 
C21H20O9

>  <InChI-Key>  (659) 
ITFXDKZROOJSKV-UHFFFAOYSA-N

>  <Total Molweight>  (659) 
416.381

>  <cLogP>  (659) 
1.8347

>  <cLogS>  (659) 
-3.275

>  <H-Acceptors>  (659) 
9

>  <H-Donors>  (659) 
2

>  <Rotatable Bonds>  (659) 
5

>  <Polar Surface Area>  (659) 
112.91

$$$$
CDB0660
     RDKit          3D

 47 49  0  0  0  0  0  0  0  0999 V2000
   -4.9474   -2.4470   -0.1240 C   0  0  0  0  0  0  0  0  0  0  0  0
   -3.6097   -2.2418   -0.5593 O   0  0  0  0  0  0  0  0  0  0  0  0
   -3.0904   -0.9783   -0.4459 C   0  0  0  0  0  0  0  0  0  0  0  0
   -1.8247   -0.7522   -1.0252 C   0  0  0  0  0  0  0  0  0  0  0  0
   -1.2405    0.5290   -0.9938 C   0  0  0  0  0  0  0  0  0  0  0  0
   -1.9242    1.6038   -0.4100 C   0  0  0  0  0  0  0  0  0  0  0  0
   -1.4398    2.9792   -0.4203 C   0  0  0  0  0  0  0  0  0  0  0  0
   -2.1393    3.9447    0.1827 C   0  0  0  0  0  0  0  0  0  0  0  0
   -3.4111    3.6806    0.8727 C   0  0  0  0  0  0  0  0  0  0  0  0
   -4.0169    4.5798    1.4434 O   0  0  0  0  0  0  0  0  0  0  0  0
   -3.8808    2.3755    0.8341 O   0  0  0  0  0  0  0  0  0  0  0  0
   -3.1541    1.3482    0.1929 C   0  0  0  0  0  0  0  0  0  0  0  0
   -3.7400    0.0809    0.1903 C   0  0  0  0  0  0  0  0  0  0  0  0
   -0.0277    0.7313   -1.6108 O   0  0  0  0  0  0  0  0  0  0  0  0
    1.0686    0.6495   -0.6752 C   0  0  0  0  0  0  0  0  0  0  0  0
    2.2433    1.4465   -1.2843 C   0  0  0  0  0  0  0  0  0  0  0  0
    3.5031    1.2626   -0.4403 C   0  0  0  0  0  0  0  0  0  0  0  0
    3.8052   -0.2162   -0.1931 C   0  0  0  0  0  0  0  0  0  0  0  0
    2.5624   -0.8709    0.4252 C   0  0  0  0  0  0  0  0  0  0  0  0
    1.4549   -0.7168   -0.4745 O   0  0  0  0  0  0  0  0  0  0  0  0
    2.7767   -2.3719    0.6667 C   0  0  0  0  0  0  0  0  0  0  0  0
    1.7181   -2.8926    1.4708 O   0  0  0  0  0  0  0  0  0  0  0  0
    4.9510   -0.2843    0.6624 O   0  0  0  0  0  0  0  0  0  0  0  0
    4.6135    1.8860   -1.1088 O   0  0  0  0  0  0  0  0  0  0  0  0
    1.9607    2.8554   -1.3553 O   0  0  0  0  0  0  0  0  0  0  0  0
   -1.1517   -1.7323   -1.7183 O   0  0  0  0  0  0  0  0  0  0  0  0
   -0.8302   -2.8542   -0.8982 C   0  0  0  0  0  0  0  0  0  0  0  0
   -5.0317   -2.3153    0.9596 H   0  0  0  0  0  0  0  0  0  0  0  0
   -5.2182   -3.4819   -0.3545 H   0  0  0  0  0  0  0  0  0  0  0  0
   -5.6446   -1.7937   -0.6591 H   0  0  0  0  0  0  0  0  0  0  0  0
   -0.5175    3.2099   -0.9423 H   0  0  0  0  0  0  0  0  0  0  0  0
   -1.8036    4.9745    0.1837 H   0  0  0  0  0  0  0  0  0  0  0  0
   -4.7044   -0.0374    0.6715 H   0  0  0  0  0  0  0  0  0  0  0  0
    0.7831    1.0964    0.2876 H   0  0  0  0  0  0  0  0  0  0  0  0
    2.4263    1.1145   -2.3139 H   0  0  0  0  0  0  0  0  0  0  0  0
    3.3993    1.7970    0.5129 H   0  0  0  0  0  0  0  0  0  0  0  0
    4.0712   -0.6906   -1.1464 H   0  0  0  0  0  0  0  0  0  0  0  0
    2.3077   -0.4029    1.3855 H   0  0  0  0  0  0  0  0  0  0  0  0
    2.7788   -2.9203   -0.2812 H   0  0  0  0  0  0  0  0  0  0  0  0
    3.7119   -2.5636    1.1999 H   0  0  0  0  0  0  0  0  0  0  0  0
    1.8298   -3.8580    1.5055 H   0  0  0  0  0  0  0  0  0  0  0  0
    5.3722   -1.1530    0.5338 H   0  0  0  0  0  0  0  0  0  0  0  0
    5.3958    1.6585   -0.5673 H   0  0  0  0  0  0  0  0  0  0  0  0
    2.7958    3.2619   -1.6635 H   0  0  0  0  0  0  0  0  0  0  0  0
    0.1422   -3.2372   -1.2225 H   0  0  0  0  0  0  0  0  0  0  0  0
   -0.7579   -2.6031    0.1662 H   0  0  0  0  0  0  0  0  0  0  0  0
   -1.5652   -3.6501   -1.0506 H   0  0  0  0  0  0  0  0  0  0  0  0
  1  2  1  0
  2  3  1  0
  3  4  1  0
  4  5  2  0
  5  6  1  0
  6  7  1  0
  7  8  2  0
  8  9  1  0
  9 10  2  0
  9 11  1  0
 11 12  1  0
 12 13  1  0
  5 14  1  0
 14 15  1  0
 15 16  1  0
 16 17  1  0
 17 18  1  0
 18 19  1  0
 19 20  1  0
 19 21  1  0
 21 22  1  0
 18 23  1  0
 17 24  1  0
 16 25  1  0
  4 26  1  0
 26 27  1  0
 13  3  2  0
 12  6  2  0
 20 15  1  0
  1 28  1  0
  1 29  1  0
  1 30  1  0
  7 31  1  0
  8 32  1  0
 13 33  1  0
 15 34  1  0
 16 35  1  0
 17 36  1  0
 18 37  1  0
 19 38  1  0
 21 39  1  0
 21 40  1  0
 22 41  1  0
 23 42  1  0
 24 43  1  0
 25 44  1  0
 27 45  1  0
 27 46  1  0
 27 47  1  0
M  END
>  <Name>  (660) 
Tomenin

>  <PubChem ID>  (660) 
5321970

>  <CDB ID>  (660) 
CDB0660

>  <Smiles>  (660) 
COC1=C(C(=C2C=CC(=O)OC2=C1)OC3C(C(C(C(O3)CO)O)O)O)OC

>  <Chemical class>  (660) 
5,6,7-Trioxygenated Coumarins

>  <Natural source>  (660) 
Prunus tomentosa

>  <Molecular Formula>  (660) 
C17H20O10

>  <InChI-Key>  (660) 
DHNNEMKGTXETQO-UHFFFAOYSA-N

>  <Total Molweight>  (660) 
384.336

>  <cLogP>  (660) 
-0.9776

>  <cLogS>  (660) 
-1.996

>  <H-Acceptors>  (660) 
10

>  <H-Donors>  (660) 
4

>  <Rotatable Bonds>  (660) 
5

>  <Polar Surface Area>  (660) 
144.14

$$$$
CDB0661
     RDKit          3D

 46 47  0  0  0  0  0  0  0  0999 V2000
    0.9542    0.2936    5.0027 C   0  0  0  0  0  0  0  0  0  0  0  0
    0.7169   -0.7846    4.1004 O   0  0  0  0  0  0  0  0  0  0  0  0
    0.4958   -0.3783    2.8045 C   0  0  0  0  0  0  0  0  0  0  0  0
   -0.6924   -0.8123    2.1953 C   0  0  0  0  0  0  0  0  0  0  0  0
   -1.6885   -1.6251    2.8896 C   0  0  0  0  0  0  0  0  0  0  0  0
   -2.8126   -1.9965    2.2706 C   0  0  0  0  0  0  0  0  0  0  0  0
   -3.1047   -1.6119    0.8832 C   0  0  0  0  0  0  0  0  0  0  0  0
   -4.1368   -1.9687    0.3283 O   0  0  0  0  0  0  0  0  0  0  0  0
   -2.1534   -0.8327    0.2431 O   0  0  0  0  0  0  0  0  0  0  0  0
   -0.9449   -0.4418    0.8714 C   0  0  0  0  0  0  0  0  0  0  0  0
   -0.0364    0.3078    0.1070 C   0  0  0  0  0  0  0  0  0  0  0  0
   -0.3609    0.6767   -1.3286 C   0  0  0  0  0  0  0  0  0  0  0  0
   -0.2657   -0.5182   -2.2940 C   0  0  2  0  0  0  0  0  0  0  0  0
    1.1167   -0.7467   -2.6263 O   0  0  0  0  0  0  0  0  0  0  0  0
   -1.0623   -0.3396   -3.6176 C   0  0  0  0  0  0  0  0  0  0  0  0
   -0.6364    0.9035   -4.4031 C   0  0  0  0  0  0  0  0  0  0  0  0
   -2.5765   -0.3329   -3.3920 C   0  0  0  0  0  0  0  0  0  0  0  0
   -0.7387   -1.4744   -4.4498 O   0  0  0  0  0  0  0  0  0  0  0  0
    1.1721    0.6789    0.7170 C   0  0  0  0  0  0  0  0  0  0  0  0
    2.0940    1.3622   -0.0377 O   0  0  0  0  0  0  0  0  0  0  0  0
    3.1593    0.4895   -0.4289 C   0  0  0  0  0  0  0  0  0  0  0  0
    1.4252    0.3823    2.0716 C   0  0  0  0  0  0  0  0  0  0  0  0
    2.5972    0.7494    2.6884 O   0  0  0  0  0  0  0  0  0  0  0  0
    2.7962    2.1648    2.6869 C   0  0  0  0  0  0  0  0  0  0  0  0
    2.0293    0.4430    5.1363 H   0  0  0  0  0  0  0  0  0  0  0  0
    0.5372    0.0106    5.9742 H   0  0  0  0  0  0  0  0  0  0  0  0
    0.4684    1.2252    4.6905 H   0  0  0  0  0  0  0  0  0  0  0  0
   -1.4939   -1.9272    3.9136 H   0  0  0  0  0  0  0  0  0  0  0  0
   -3.5622   -2.6030    2.7637 H   0  0  0  0  0  0  0  0  0  0  0  0
   -1.3698    1.1044   -1.3268 H   0  0  0  0  0  0  0  0  0  0  0  0
    0.3003    1.4828   -1.6675 H   0  0  0  0  0  0  0  0  0  0  0  0
   -0.6027   -1.4446   -1.8141 H   0  0  0  0  0  0  0  0  0  0  0  0
    1.0998   -1.2504   -3.4659 H   0  0  0  0  0  0  0  0  0  0  0  0
   -1.1398    0.9359   -5.3765 H   0  0  0  0  0  0  0  0  0  0  0  0
   -0.8733    1.8276   -3.8671 H   0  0  0  0  0  0  0  0  0  0  0  0
    0.4381    0.8904   -4.6167 H   0  0  0  0  0  0  0  0  0  0  0  0
   -2.9128    0.5572   -2.8529 H   0  0  0  0  0  0  0  0  0  0  0  0
   -2.8906   -1.2182   -2.8275 H   0  0  0  0  0  0  0  0  0  0  0  0
   -3.1096   -0.3732   -4.3490 H   0  0  0  0  0  0  0  0  0  0  0  0
   -1.2048   -2.2503   -4.0888 H   0  0  0  0  0  0  0  0  0  0  0  0
    3.9528    0.5062    0.3245 H   0  0  0  0  0  0  0  0  0  0  0  0
    3.5747    0.8696   -1.3669 H   0  0  0  0  0  0  0  0  0  0  0  0
    2.8290   -0.5423   -0.5940 H   0  0  0  0  0  0  0  0  0  0  0  0
    3.3435    2.4220    3.5991 H   0  0  0  0  0  0  0  0  0  0  0  0
    1.8543    2.7259    2.6937 H   0  0  0  0  0  0  0  0  0  0  0  0
    3.4149    2.4632    1.8363 H   0  0  0  0  0  0  0  0  0  0  0  0
  1  2  1  0
  2  3  1  0
  3  4  1  0
  4  5  1  0
  5  6  2  0
  6  7  1  0
  7  8  2  0
  7  9  1  0
  9 10  1  0
 10 11  1  0
 11 12  1  0
 12 13  1  0
 13 14  1  0
 13 15  1  0
 15 16  1  0
 15 17  1  0
 15 18  1  0
 11 19  2  0
 19 20  1  0
 20 21  1  0
 19 22  1  0
 22 23  1  0
 23 24  1  0
 22  3  2  0
 10  4  2  0
  1 25  1  0
  1 26  1  0
  1 27  1  0
  5 28  1  0
  6 29  1  0
 12 30  1  0
 12 31  1  0
 13 32  1  1
 14 33  1  0
 16 34  1  0
 16 35  1  0
 16 36  1  0
 17 37  1  0
 17 38  1  0
 17 39  1  0
 18 40  1  0
 21 41  1  0
 21 42  1  0
 21 43  1  0
 24 44  1  0
 24 45  1  0
 24 46  1  0
M  END
>  <Name>  (661) 
Murragleinin

>  <PubChem ID>  (661) 
101311688

>  <CDB ID>  (661) 
CDB0661

>  <Smiles>  (661) 
COC1=C2C=CC(=O)OC2=C(C[C@H](O)C(C)(C)O)C(OC)=C1OC

>  <Chemical class>  (661) 
5,6,7-Trioxygenated Coumarins

>  <Natural source>  (661) 
Murraya gleinei

>  <Molecular Formula>  (661) 
C17H22O7

>  <InChI-Key>  (661) 
HJRKWDUNTXYKKL-NSHDSACASA-N

>  <Total Molweight>  (661) 
338.355

>  <cLogP>  (661) 
1.2927

>  <cLogS>  (661) 
-2.778

>  <H-Acceptors>  (661) 
7

>  <H-Donors>  (661) 
2

>  <Rotatable Bonds>  (661) 
6

>  <Polar Surface Area>  (661) 
94.45

$$$$
CDB0662
     RDKit          3D

 28 30  0  0  0  0  0  0  0  0999 V2000
   -2.0133    2.0559   -1.5143 C   0  0  0  0  0  0  0  0  0  0  0  0
   -1.3235    2.0601   -0.2637 O   0  0  0  0  0  0  0  0  0  0  0  0
   -0.5681    0.9209   -0.0678 C   0  0  0  0  0  0  0  0  0  0  0  0
   -1.1670   -0.3614   -0.0154 C   0  0  0  0  0  0  0  0  0  0  0  0
   -0.2916   -1.4397    0.1972 C   0  0  0  0  0  0  0  0  0  0  0  0
    1.0806   -1.2995    0.3920 C   0  0  0  0  0  0  0  0  0  0  0  0
    1.5958   -2.6121    0.5716 C   0  0  0  0  0  0  0  0  0  0  0  0
    0.5241   -3.4647    0.4722 C   0  0  0  0  0  0  0  0  0  0  0  0
   -0.6173   -2.7677    0.2461 O   0  0  0  0  0  0  0  0  0  0  0  0
    1.6285   -0.0071    0.3790 C   0  0  0  0  0  0  0  0  0  0  0  0
    0.8097    1.1071    0.1559 C   0  0  0  0  0  0  0  0  0  0  0  0
    1.4355    2.4282    0.1581 C   0  0  0  0  0  0  0  0  0  0  0  0
    2.7496    2.5566    0.3612 C   0  0  0  0  0  0  0  0  0  0  0  0
    3.6265    1.3991    0.5880 C   0  0  0  0  0  0  0  0  0  0  0  0
    4.8298    1.5450    0.7651 O   0  0  0  0  0  0  0  0  0  0  0  0
    3.0196    0.1529    0.5885 O   0  0  0  0  0  0  0  0  0  0  0  0
   -2.5376   -0.4298   -0.1925 O   0  0  0  0  0  0  0  0  0  0  0  0
   -3.1668   -1.6453    0.1921 C   0  0  0  0  0  0  0  0  0  0  0  0
   -2.0441    3.0874   -1.8786 H   0  0  0  0  0  0  0  0  0  0  0  0
   -1.5133    1.4470   -2.2766 H   0  0  0  0  0  0  0  0  0  0  0  0
   -3.0458    1.7237   -1.3731 H   0  0  0  0  0  0  0  0  0  0  0  0
    2.6245   -2.8931    0.7502 H   0  0  0  0  0  0  0  0  0  0  0  0
    0.4123   -4.5384    0.5360 H   0  0  0  0  0  0  0  0  0  0  0  0
    0.8129    3.3027   -0.0016 H   0  0  0  0  0  0  0  0  0  0  0  0
    3.2334    3.5257    0.3700 H   0  0  0  0  0  0  0  0  0  0  0  0
   -2.8921   -1.9397    1.2104 H   0  0  0  0  0  0  0  0  0  0  0  0
   -4.2480   -1.4753    0.1810 H   0  0  0  0  0  0  0  0  0  0  0  0
   -2.9542   -2.4386   -0.5308 H   0  0  0  0  0  0  0  0  0  0  0  0
  1  2  1  0
  2  3  1  0
  3  4  1  0
  4  5  2  0
  5  6  1  0
  6  7  1  0
  7  8  2  0
  8  9  1  0
  6 10  2  0
 10 11  1  0
 11 12  1  0
 12 13  2  0
 13 14  1  0
 14 15  2  0
 14 16  1  0
  4 17  1  0
 17 18  1  0
 11  3  2  0
  9  5  1  0
 16 10  1  0
  1 19  1  0
  1 20  1  0
  1 21  1  0
  7 22  1  0
  8 23  1  0
 12 24  1  0
 13 25  1  0
 18 26  1  0
 18 27  1  0
 18 28  1  0
M  END
>  <Name>  (662) 
Pimpinellin

>  <PubChem ID>  (662) 
4825

>  <CDB ID>  (662) 
CDB0662

>  <Smiles>  (662) 
COC1=C(C2=C(C=CO2)C3=C1C=CC(=O)O3)OC

>  <Chemical class>  (662) 
5,6,7-Trioxygenated Coumarins

>  <Natural source>  (662) 
Pimpinella saxifraga

>  <Molecular Formula>  (662) 
C13H10O5

>  <InChI-Key>  (662) 
BQPRWZCEKZLBHL-UHFFFAOYSA-N

>  <Total Molweight>  (662) 
246.217

>  <cLogP>  (662) 
1.809

>  <cLogS>  (662) 
-3.565

>  <H-Acceptors>  (662) 
5

>  <H-Donors>  (662) 
0

>  <Rotatable Bonds>  (662) 
2

>  <Polar Surface Area>  (662) 
57.9

$$$$
CDB0663
     RDKit          3D

 42 44  0  0  0  0  0  0  0  0999 V2000
   -0.9830   -1.9305   -1.9746 C   0  0  0  0  0  0  0  0  0  0  0  0
   -1.5388   -0.6279   -2.1749 O   0  0  0  0  0  0  0  0  0  0  0  0
   -1.8689   -0.0625   -0.9603 C   0  0  0  0  0  0  0  0  0  0  0  0
   -0.8821    0.6607   -0.2598 C   0  0  0  0  0  0  0  0  0  0  0  0
    0.3516    0.8350   -0.8551 O   0  0  0  0  0  0  0  0  0  0  0  0
    1.4510    0.5466    0.0284 C   0  0  0  0  0  0  0  0  0  0  0  0
    2.6963    0.3728   -0.8578 C   0  0  2  0  0  0  0  0  0  0  0  0
    2.4498   -0.6693   -1.8139 O   0  0  0  0  0  0  0  0  0  0  0  0
    3.9977    0.0954   -0.0613 C   0  0  0  0  0  0  0  0  0  0  0  0
    5.1995   -0.0019   -1.0116 C   0  0  0  0  0  0  0  0  0  0  0  0
    3.9180   -1.1882    0.7713 C   0  0  0  0  0  0  0  0  0  0  0  0
    4.2404    1.1750    0.8508 O   0  0  0  0  0  0  0  0  0  0  0  0
   -1.2746    1.2363    0.9549 C   0  0  0  0  0  0  0  0  0  0  0  0
   -2.5547    1.1162    1.4878 C   0  0  0  0  0  0  0  0  0  0  0  0
   -2.5366    1.8261    2.7188 C   0  0  0  0  0  0  0  0  0  0  0  0
   -1.2688    2.3402    2.8509 C   0  0  0  0  0  0  0  0  0  0  0  0
   -0.5012    1.9941    1.7863 O   0  0  0  0  0  0  0  0  0  0  0  0
   -3.5161    0.3983    0.7553 C   0  0  0  0  0  0  0  0  0  0  0  0
   -3.1847   -0.1800   -0.4790 C   0  0  0  0  0  0  0  0  0  0  0  0
   -4.2382   -0.8707   -1.2185 C   0  0  0  0  0  0  0  0  0  0  0  0
   -5.4699   -0.9685   -0.7104 C   0  0  0  0  0  0  0  0  0  0  0  0
   -5.8303   -0.3980    0.5959 C   0  0  0  0  0  0  0  0  0  0  0  0
   -6.9633   -0.5195    1.0452 O   0  0  0  0  0  0  0  0  0  0  0  0
   -4.8276    0.2765    1.2752 O   0  0  0  0  0  0  0  0  0  0  0  0
   -0.1154   -1.9078   -1.3073 H   0  0  0  0  0  0  0  0  0  0  0  0
   -1.7382   -2.6207   -1.5837 H   0  0  0  0  0  0  0  0  0  0  0  0
   -0.6523   -2.3051   -2.9478 H   0  0  0  0  0  0  0  0  0  0  0  0
    1.6048    1.3785    0.7215 H   0  0  0  0  0  0  0  0  0  0  0  0
    1.2388   -0.3788    0.5760 H   0  0  0  0  0  0  0  0  0  0  0  0
    2.8242    1.2974   -1.4362 H   0  0  0  0  0  0  0  0  0  0  0  0
    1.6086   -0.4241   -2.2474 H   0  0  0  0  0  0  0  0  0  0  0  0
    6.1346   -0.0989   -0.4479 H   0  0  0  0  0  0  0  0  0  0  0  0
    5.1161   -0.8558   -1.6914 H   0  0  0  0  0  0  0  0  0  0  0  0
    5.2961    0.9099   -1.6122 H   0  0  0  0  0  0  0  0  0  0  0  0
    3.6918   -2.0631    0.1537 H   0  0  0  0  0  0  0  0  0  0  0  0
    3.1620   -1.1081    1.5594 H   0  0  0  0  0  0  0  0  0  0  0  0
    4.8670   -1.3718    1.2893 H   0  0  0  0  0  0  0  0  0  0  0  0
    4.5068    1.9548    0.3326 H   0  0  0  0  0  0  0  0  0  0  0  0
   -3.3549    1.9536    3.4139 H   0  0  0  0  0  0  0  0  0  0  0  0
   -0.7802    2.9456    3.6021 H   0  0  0  0  0  0  0  0  0  0  0  0
   -4.0069   -1.2901   -2.1922 H   0  0  0  0  0  0  0  0  0  0  0  0
   -6.2683   -1.4717   -1.2421 H   0  0  0  0  0  0  0  0  0  0  0  0
  1  2  1  0
  2  3  1  0
  3  4  1  0
  4  5  1  0
  5  6  1  0
  6  7  1  0
  7  8  1  0
  7  9  1  0
  9 10  1  0
  9 11  1  0
  9 12  1  0
  4 13  2  0
 13 14  1  0
 14 15  1  0
 15 16  2  0
 16 17  1  0
 14 18  2  0
 18 19  1  0
 19 20  1  0
 20 21  2  0
 21 22  1  0
 22 23  2  0
 22 24  1  0
 19  3  2  0
 17 13  1  0
 24 18  1  0
  1 25  1  0
  1 26  1  0
  1 27  1  0
  6 28  1  0
  6 29  1  0
  7 30  1  6
  8 31  1  0
 10 32  1  0
 10 33  1  0
 10 34  1  0
 11 35  1  0
 11 36  1  0
 11 37  1  0
 12 38  1  0
 15 39  1  0
 16 40  1  0
 20 41  1  0
 21 42  1  0
M  END
>  <Name>  (663) 
Heraclesol

>  <PubChem ID>  (663) 
15596587

>  <CDB ID>  (663) 
CDB0663

>  <Smiles>  (663) 
COC1=C(OC[C@H](O)C(C)(C)O)C2=C(C=CO2)C2=C1C=CC(=O)O2

>  <Chemical class>  (663) 
5,6,7-Trioxygenated Coumarins

>  <Natural source>  (663) 
Heracleum leskovii

>  <Molecular Formula>  (663) 
C17H18O7

>  <InChI-Key>  (663) 
SYCQEMIWUFVJHN-NSHDSACASA-N

>  <Total Molweight>  (663) 
334.323

>  <cLogP>  (663) 
1.4611

>  <cLogS>  (663) 
-3.716

>  <H-Acceptors>  (663) 
7

>  <H-Donors>  (663) 
2

>  <Rotatable Bonds>  (663) 
5

>  <Polar Surface Area>  (663) 
98.36

$$$$
CDB0664
     RDKit          3D

 26 27  0  0  0  0  0  0  0  0999 V2000
   -1.6968    2.8428   -0.1352 C   0  0  0  0  0  0  0  0  0  0  0  0
   -1.8941    1.4368   -0.0559 O   0  0  0  0  0  0  0  0  0  0  0  0
   -0.7811    0.6329   -0.0253 C   0  0  0  0  0  0  0  0  0  0  0  0
    0.5421    1.1077   -0.0671 C   0  0  0  0  0  0  0  0  0  0  0  0
    1.6289    0.2222   -0.0316 C   0  0  0  0  0  0  0  0  0  0  0  0
    1.3776   -1.1497    0.0464 C   0  0  0  0  0  0  0  0  0  0  0  0
    0.0663   -1.6203    0.0878 C   0  0  0  0  0  0  0  0  0  0  0  0
   -1.0216   -0.7508    0.0533 C   0  0  0  0  0  0  0  0  0  0  0  0
   -2.3615   -1.3301    0.1010 C   0  0  0  0  0  0  0  0  0  0  0  0
   -2.5206   -2.6546    0.1753 C   0  0  0  0  0  0  0  0  0  0  0  0
   -1.3801   -3.5822    0.2124 C   0  0  0  0  0  0  0  0  0  0  0  0
   -1.5534   -4.7929    0.2807 O   0  0  0  0  0  0  0  0  0  0  0  0
   -0.1134   -3.0188    0.1664 O   0  0  0  0  0  0  0  0  0  0  0  0
    2.4225   -2.0358    0.0823 O   0  0  0  0  0  0  0  0  0  0  0  0
    2.9474    0.5916   -0.0676 O   0  0  0  0  0  0  0  0  0  0  0  0
    3.2477    1.9770   -0.1469 C   0  0  0  0  0  0  0  0  0  0  0  0
   -1.1608    3.2160    0.7435 H   0  0  0  0  0  0  0  0  0  0  0  0
   -2.6826    3.3177   -0.1493 H   0  0  0  0  0  0  0  0  0  0  0  0
   -1.1824    3.1173   -1.0618 H   0  0  0  0  0  0  0  0  0  0  0  0
    0.7281    2.1721   -0.1275 H   0  0  0  0  0  0  0  0  0  0  0  0
   -3.2203   -0.6674    0.0750 H   0  0  0  0  0  0  0  0  0  0  0  0
   -3.5027   -3.1100    0.2119 H   0  0  0  0  0  0  0  0  0  0  0  0
    2.0424   -2.9311    0.1359 H   0  0  0  0  0  0  0  0  0  0  0  0
    2.8766    2.5124    0.7331 H   0  0  0  0  0  0  0  0  0  0  0  0
    4.3367    2.0833   -0.1658 H   0  0  0  0  0  0  0  0  0  0  0  0
    2.8551    2.4138   -1.0710 H   0  0  0  0  0  0  0  0  0  0  0  0
  1  2  1  0
  2  3  1  0
  3  4  1  0
  4  5  2  0
  5  6  1  0
  6  7  2  0
  7  8  1  0
  8  9  1  0
  9 10  2  0
 10 11  1  0
 11 12  2  0
 11 13  1  0
  6 14  1  0
  5 15  1  0
 15 16  1  0
  8  3  2  0
 13  7  1  0
  1 17  1  0
  1 18  1  0
  1 19  1  0
  4 20  1  0
  9 21  1  0
 10 22  1  0
 14 23  1  0
 16 24  1  0
 16 25  1  0
 16 26  1  0
M  END
>  <Name>  (664) 
Leptodactylone

>  <PubChem ID>  (664) 
442134

>  <CDB ID>  (664) 
CDB0664

>  <Smiles>  (664) 
COC1=CC(=C(C2=C1C=CC(=O)O2)O)OC

>  <Chemical class>  (664) 
5,7,8-Trioxygenated Coumarins

>  <Natural source>  (664) 
Leptodactylon californicum

>  <Molecular Formula>  (664) 
C11H10O5

>  <InChI-Key>  (664) 
TUFLVKBJDSZLAW-UHFFFAOYSA-N

>  <Total Molweight>  (664) 
222.195

>  <cLogP>  (664) 
1.0117

>  <cLogS>  (664) 
-2.11

>  <H-Acceptors>  (664) 
5

>  <H-Donors>  (664) 
1

>  <Rotatable Bonds>  (664) 
2

>  <Polar Surface Area>  (664) 
64.99

$$$$
CDB0665
     RDKit          3D

 39 40  0  0  0  0  0  0  0  0999 V2000
    5.5316    0.1847   -1.1619 C   0  0  0  0  0  0  0  0  0  0  0  0
    4.2778    0.3559   -0.3436 C   0  0  0  0  0  0  0  0  0  0  0  0
    3.0730    0.4149   -0.9457 C   0  0  0  0  0  0  0  0  0  0  0  0
    1.7164    0.5705   -0.3225 C   0  0  0  0  0  0  0  0  0  0  0  0
    0.9090   -0.5177   -0.7887 O   0  0  0  0  0  0  0  0  0  0  0  0
   -0.3930   -0.3525   -0.3856 C   0  0  0  0  0  0  0  0  0  0  0  0
   -0.8217   -0.8287    0.8594 C   0  0  0  0  0  0  0  0  0  0  0  0
   -2.1687   -0.6803    1.2172 C   0  0  0  0  0  0  0  0  0  0  0  0
   -3.0890   -0.0873    0.3359 C   0  0  0  0  0  0  0  0  0  0  0  0
   -2.6545    0.3675   -0.9230 C   0  0  0  0  0  0  0  0  0  0  0  0
   -1.3104    0.2236   -1.2663 C   0  0  0  0  0  0  0  0  0  0  0  0
   -0.8302    0.6676   -2.5193 O   0  0  0  0  0  0  0  0  0  0  0  0
   -1.6642    1.2589   -3.4537 C   0  0  0  0  0  0  0  0  0  0  0  0
   -1.2618    1.6579   -4.5402 O   0  0  0  0  0  0  0  0  0  0  0  0
   -3.0793    1.3985   -3.0787 C   0  0  0  0  0  0  0  0  0  0  0  0
   -3.5494    0.9861   -1.8981 C   0  0  0  0  0  0  0  0  0  0  0  0
   -4.4218    0.0920    0.6147 O   0  0  0  0  0  0  0  0  0  0  0  0
   -4.9121   -0.3873    1.8604 C   0  0  0  0  0  0  0  0  0  0  0  0
    0.1406   -1.3962    1.6532 O   0  0  0  0  0  0  0  0  0  0  0  0
   -0.2921   -2.1125    2.8015 C   0  0  0  0  0  0  0  0  0  0  0  0
    4.5168    0.4414    1.1380 C   0  0  0  0  0  0  0  0  0  0  0  0
    6.2056    1.0332   -1.0045 H   0  0  0  0  0  0  0  0  0  0  0  0
    6.0525   -0.7330   -0.8693 H   0  0  0  0  0  0  0  0  0  0  0  0
    5.3236    0.1205   -2.2351 H   0  0  0  0  0  0  0  0  0  0  0  0
    3.0336    0.3396   -2.0325 H   0  0  0  0  0  0  0  0  0  0  0  0
    1.2945    1.5277   -0.6547 H   0  0  0  0  0  0  0  0  0  0  0  0
    1.7545    0.5655    0.7695 H   0  0  0  0  0  0  0  0  0  0  0  0
   -2.4999   -1.0242    2.1885 H   0  0  0  0  0  0  0  0  0  0  0  0
   -3.7213    1.8589   -3.8195 H   0  0  0  0  0  0  0  0  0  0  0  0
   -4.5987    1.1019   -1.6479 H   0  0  0  0  0  0  0  0  0  0  0  0
   -4.7811   -1.4709    1.9462 H   0  0  0  0  0  0  0  0  0  0  0  0
   -4.4408    0.1381    2.6974 H   0  0  0  0  0  0  0  0  0  0  0  0
   -5.9855   -0.1783    1.8992 H   0  0  0  0  0  0  0  0  0  0  0  0
    0.5829   -2.6022    3.2396 H   0  0  0  0  0  0  0  0  0  0  0  0
   -0.7033   -1.4318    3.5538 H   0  0  0  0  0  0  0  0  0  0  0  0
   -1.0135   -2.8930    2.5373 H   0  0  0  0  0  0  0  0  0  0  0  0
    3.6071    0.5987    1.7204 H   0  0  0  0  0  0  0  0  0  0  0  0
    5.1915    1.2748    1.3615 H   0  0  0  0  0  0  0  0  0  0  0  0
    4.9814   -0.4829    1.4971 H   0  0  0  0  0  0  0  0  0  0  0  0
  1  2  1  0
  2  3  2  3
  3  4  1  0
  4  5  1  0
  5  6  1  0
  6  7  1  0
  7  8  2  0
  8  9  1  0
  9 10  2  0
 10 11  1  0
 11 12  1  0
 12 13  1  0
 13 14  2  0
 13 15  1  0
 15 16  2  0
  9 17  1  0
 17 18  1  0
  7 19  1  0
 19 20  1  0
  2 21  1  0
 11  6  2  0
 16 10  1  0
  1 22  1  0
  1 23  1  0
  1 24  1  0
  3 25  1  0
  4 26  1  0
  4 27  1  0
  8 28  1  0
 15 29  1  0
 16 30  1  0
 18 31  1  0
 18 32  1  0
 18 33  1  0
 20 34  1  0
 20 35  1  0
 20 36  1  0
 21 37  1  0
 21 38  1  0
 21 39  1  0
M  END
>  <Name>  (665) 
Artanin

>  <PubChem ID>  (665) 
14841901

>  <CDB ID>  (665) 
CDB0665

>  <Smiles>  (665) 
CC(=CCOC1=C(C=C(C2=C1OC(=O)C=C2)OC)OC)C

>  <Chemical class>  (665) 
5,7,8-Trioxygenated Coumarins

>  <Natural source>  (665) 
Artemisia tanacetifolia

>  <Molecular Formula>  (665) 
C16H18O5

>  <InChI-Key>  (665) 
BSOMOYSKROCRIG-UHFFFAOYSA-N

>  <Total Molweight>  (665) 
290.314

>  <cLogP>  (665) 
2.9567

>  <cLogS>  (665) 
-3.16

>  <H-Acceptors>  (665) 
5

>  <H-Donors>  (665) 
0

>  <Rotatable Bonds>  (665) 
5

>  <Polar Surface Area>  (665) 
53.99

$$$$
CDB0666
     RDKit          3D

 24 26  0  0  0  0  0  0  0  0999 V2000
    2.8235   -2.1277   -0.4750 C   0  0  0  0  0  0  0  0  0  0  0  0
    2.3658   -0.7916   -0.3040 O   0  0  0  0  0  0  0  0  0  0  0  0
    1.0110   -0.5949   -0.1930 C   0  0  0  0  0  0  0  0  0  0  0  0
    0.5881    0.7493   -0.0235 C   0  0  0  0  0  0  0  0  0  0  0  0
    1.5202    1.8730    0.0325 C   0  0  0  0  0  0  0  0  0  0  0  0
    1.0623    3.1179    0.1938 C   0  0  0  0  0  0  0  0  0  0  0  0
   -0.3722    3.4217    0.3214 C   0  0  0  0  0  0  0  0  0  0  0  0
   -0.7551    4.5766    0.4683 O   0  0  0  0  0  0  0  0  0  0  0  0
   -1.2464    2.3477    0.2668 O   0  0  0  0  0  0  0  0  0  0  0  0
   -0.7758    1.0356    0.0975 C   0  0  0  0  0  0  0  0  0  0  0  0
   -1.6914    0.0080    0.0505 C   0  0  0  0  0  0  0  0  0  0  0  0
   -1.2751   -1.2890   -0.1136 C   0  0  0  0  0  0  0  0  0  0  0  0
    0.0598   -1.6249   -0.2379 C   0  0  0  0  0  0  0  0  0  0  0  0
   -2.3134   -2.1686   -0.1369 O   0  0  0  0  0  0  0  0  0  0  0  0
   -3.4331   -1.2733    0.0319 C   0  0  0  0  0  0  0  0  0  0  0  0
   -3.0431    0.1087    0.1511 O   0  0  0  0  0  0  0  0  0  0  0  0
    2.5611   -2.7480    0.3882 H   0  0  0  0  0  0  0  0  0  0  0  0
    2.4415   -2.5594   -1.4059 H   0  0  0  0  0  0  0  0  0  0  0  0
    3.9151   -2.0999   -0.5448 H   0  0  0  0  0  0  0  0  0  0  0  0
    2.5835    1.6783   -0.0589 H   0  0  0  0  0  0  0  0  0  0  0  0
    1.7302    3.9694    0.2388 H   0  0  0  0  0  0  0  0  0  0  0  0
    0.3233   -2.6674   -0.3651 H   0  0  0  0  0  0  0  0  0  0  0  0
   -4.0988   -1.3778   -0.8326 H   0  0  0  0  0  0  0  0  0  0  0  0
   -3.9809   -1.5637    0.9357 H   0  0  0  0  0  0  0  0  0  0  0  0
  1  2  1  0
  2  3  1  0
  3  4  2  0
  4  5  1  0
  5  6  2  0
  6  7  1  0
  7  8  2  0
  7  9  1  0
  9 10  1  0
 10 11  2  0
 11 12  1  0
 12 13  2  0
 12 14  1  0
 14 15  1  0
 15 16  1  0
 13  3  1  0
 10  4  1  0
 16 11  1  0
  1 17  1  0
  1 18  1  0
  1 19  1  0
  5 20  1  0
  6 21  1  0
 13 22  1  0
 15 23  1  0
 15 24  1  0
M  END
>  <Name>  (666) 
Sabandinin

>  <PubChem ID>  (666) 
44297422

>  <CDB ID>  (666) 
CDB0666

>  <Smiles>  (666) 
COC1=C2C=CC(=O)OC2=C3C(=C1)OCO3

>  <Chemical class>  (666) 
5,7,8-Trioxygenated Coumarins

>  <Natural source>  (666) 
Ruta pinnata

>  <Molecular Formula>  (666) 
C11H8O5

>  <InChI-Key>  (666) 
QRKSJJWXUFPDKG-UHFFFAOYSA-N

>  <Total Molweight>  (666) 
220.18

>  <cLogP>  (666) 
1.5388

>  <cLogS>  (666) 
-3.099

>  <H-Acceptors>  (666) 
5

>  <H-Donors>  (666) 
0

>  <Rotatable Bonds>  (666) 
1

>  <Polar Surface Area>  (666) 
53.99

$$$$
CDB0667
     RDKit          3D

 40 42  0  0  0  0  0  0  0  0999 V2000
   -6.0242   -0.2193    0.9852 C   0  0  0  0  0  0  0  0  0  0  0  0
   -5.1748   -1.2088    0.4178 O   0  0  0  0  0  0  0  0  0  0  0  0
   -3.9521   -0.7905   -0.0296 C   0  0  0  0  0  0  0  0  0  0  0  0
   -3.1574   -1.7988   -0.5807 C   0  0  0  0  0  0  0  0  0  0  0  0
   -1.8823   -1.5127   -1.0742 C   0  0  0  0  0  0  0  0  0  0  0  0
   -1.3846   -0.2059   -1.0178 C   0  0  0  0  0  0  0  0  0  0  0  0
   -2.1839    0.8055   -0.4718 C   0  0  0  0  0  0  0  0  0  0  0  0
   -3.4606    0.5141    0.0227 C   0  0  0  0  0  0  0  0  0  0  0  0
   -0.0421    0.1080   -1.5469 C   0  0  0  0  0  0  0  0  0  0  0  0
    0.0159    0.2327   -2.8835 C   0  0  0  0  0  0  0  0  0  0  0  0
    1.2447    0.5448   -3.6195 C   0  0  0  0  0  0  0  0  0  0  0  0
    1.2422    0.6398   -4.8408 O   0  0  0  0  0  0  0  0  0  0  0  0
    2.3923    0.7209   -2.8722 O   0  0  0  0  0  0  0  0  0  0  0  0
    2.3723    0.6085   -1.4662 C   0  0  0  0  0  0  0  0  0  0  0  0
    1.2007    0.3067   -0.7702 C   0  0  0  0  0  0  0  0  0  0  0  0
    1.3101    0.2077    0.6279 C   0  0  0  0  0  0  0  0  0  0  0  0
    2.5280    0.4462    1.2921 C   0  0  0  0  0  0  0  0  0  0  0  0
    3.6844    0.7469    0.5727 C   0  0  0  0  0  0  0  0  0  0  0  0
    3.5955    0.8207   -0.8181 C   0  0  0  0  0  0  0  0  0  0  0  0
    4.7146    1.1116   -1.5559 O   0  0  0  0  0  0  0  0  0  0  0  0
    4.9161    0.9828    1.1194 O   0  0  0  0  0  0  0  0  0  0  0  0
    5.0243    0.9506    2.5353 C   0  0  0  0  0  0  0  0  0  0  0  0
    0.2061   -0.0456    1.4034 O   0  0  0  0  0  0  0  0  0  0  0  0
    0.2408   -1.3740    1.9280 C   0  0  0  0  0  0  0  0  0  0  0  0
   -5.5736    0.2213    1.8806 H   0  0  0  0  0  0  0  0  0  0  0  0
   -6.9539   -0.7107    1.2881 H   0  0  0  0  0  0  0  0  0  0  0  0
   -6.2792    0.5511    0.2499 H   0  0  0  0  0  0  0  0  0  0  0  0
   -3.5363   -2.8171   -0.6257 H   0  0  0  0  0  0  0  0  0  0  0  0
   -1.2832   -2.3162   -1.4956 H   0  0  0  0  0  0  0  0  0  0  0  0
   -1.8124    1.8264   -0.4148 H   0  0  0  0  0  0  0  0  0  0  0  0
   -4.0401    1.3285    0.4440 H   0  0  0  0  0  0  0  0  0  0  0  0
   -0.8586    0.1097   -3.5153 H   0  0  0  0  0  0  0  0  0  0  0  0
    2.5351    0.4004    2.3759 H   0  0  0  0  0  0  0  0  0  0  0  0
    4.4495    1.1312   -2.4929 H   0  0  0  0  0  0  0  0  0  0  0  0
    4.3966    1.7197    2.9972 H   0  0  0  0  0  0  0  0  0  0  0  0
    6.0642    1.1689    2.7968 H   0  0  0  0  0  0  0  0  0  0  0  0
    4.7846   -0.0436    2.9268 H   0  0  0  0  0  0  0  0  0  0  0  0
    0.9610   -1.4482    2.7492 H   0  0  0  0  0  0  0  0  0  0  0  0
   -0.7520   -1.6018    2.3275 H   0  0  0  0  0  0  0  0  0  0  0  0
    0.4723   -2.1115    1.1511 H   0  0  0  0  0  0  0  0  0  0  0  0
  1  2  1  0
  2  3  1  0
  3  4  1  0
  4  5  2  0
  5  6  1  0
  6  7  2  0
  7  8  1  0
  6  9  1  0
  9 10  2  0
 10 11  1  0
 11 12  2  0
 11 13  1  0
 13 14  1  0
 14 15  1  0
 15 16  2  0
 16 17  1  0
 17 18  2  0
 18 19  1  0
 19 20  1  0
 18 21  1  0
 21 22  1  0
 16 23  1  0
 23 24  1  0
  8  3  2  0
 15  9  1  0
 19 14  2  0
  1 25  1  0
  1 26  1  0
  1 27  1  0
  4 28  1  0
  5 29  1  0
  7 30  1  0
  8 31  1  0
 10 32  1  0
 17 33  1  0
 20 34  1  0
 22 35  1  0
 22 36  1  0
 22 37  1  0
 24 38  1  0
 24 39  1  0
 24 40  1  0
M  END
>  <Name>  (667) 
Exostemin

>  <PubChem ID>  (667) 
10471697

>  <CDB ID>  (667) 
CDB0667

>  <Smiles>  (667) 
COC1=CC=C(C=C1)C2=CC(=O)OC3=C2C(=CC(=C3O)OC)OC

>  <Chemical class>  (667) 
5,7,8-Trioxygenated Coumarins

>  <Natural source>  (667) 
Exostemma caribaeum

>  <Molecular Formula>  (667) 
C18H16O6

>  <InChI-Key>  (667) 
NBXASEHAOQMXCJ-UHFFFAOYSA-N

>  <Total Molweight>  (667) 
328.319

>  <cLogP>  (667) 
2.4398

>  <cLogS>  (667) 
-3.333

>  <H-Acceptors>  (667) 
6

>  <H-Donors>  (667) 
1

>  <Rotatable Bonds>  (667) 
4

>  <Polar Surface Area>  (667) 
74.22

$$$$
CDB0668
     RDKit          3D

 28 30  0  0  0  0  0  0  0  0999 V2000
    3.2059    0.0995    1.2128 C   0  0  0  0  0  0  0  0  0  0  0  0
    2.7197    0.1104   -0.1308 O   0  0  0  0  0  0  0  0  0  0  0  0
    1.3438   -0.0035   -0.1367 C   0  0  0  0  0  0  0  0  0  0  0  0
    0.7250   -1.2671   -0.0203 C   0  0  0  0  0  0  0  0  0  0  0  0
    1.1847   -2.6058    0.1308 C   0  0  0  0  0  0  0  0  0  0  0  0
    0.0653   -3.3980    0.1926 C   0  0  0  0  0  0  0  0  0  0  0  0
   -1.0555   -2.6434    0.0841 O   0  0  0  0  0  0  0  0  0  0  0  0
   -0.6683   -1.3394   -0.0577 C   0  0  0  0  0  0  0  0  0  0  0  0
   -1.5035   -0.2245   -0.2209 C   0  0  0  0  0  0  0  0  0  0  0  0
   -0.8386    1.0078   -0.3701 C   0  0  0  0  0  0  0  0  0  0  0  0
    0.5529    1.1408   -0.3455 C   0  0  0  0  0  0  0  0  0  0  0  0
    1.1309    2.4674   -0.5399 C   0  0  0  0  0  0  0  0  0  0  0  0
    0.3404    3.5293   -0.7170 C   0  0  0  0  0  0  0  0  0  0  0  0
   -1.1264    3.4259   -0.7247 C   0  0  0  0  0  0  0  0  0  0  0  0
   -1.8236    4.4219   -0.8754 O   0  0  0  0  0  0  0  0  0  0  0  0
   -1.6552    2.1574   -0.5543 O   0  0  0  0  0  0  0  0  0  0  0  0
   -2.8859   -0.1924   -0.2642 O   0  0  0  0  0  0  0  0  0  0  0  0
   -3.5575   -1.4368   -0.1272 C   0  0  0  0  0  0  0  0  0  0  0  0
    2.7242    0.8748    1.8193 H   0  0  0  0  0  0  0  0  0  0  0  0
    3.0711   -0.8834    1.6753 H   0  0  0  0  0  0  0  0  0  0  0  0
    4.2784    0.3131    1.1810 H   0  0  0  0  0  0  0  0  0  0  0  0
    2.2100   -2.9433    0.1844 H   0  0  0  0  0  0  0  0  0  0  0  0
   -0.0955   -4.4617    0.3027 H   0  0  0  0  0  0  0  0  0  0  0  0
    2.2107    2.5733   -0.5486 H   0  0  0  0  0  0  0  0  0  0  0  0
    0.7436    4.5232   -0.8675 H   0  0  0  0  0  0  0  0  0  0  0  0
   -3.3553   -1.8910    0.8479 H   0  0  0  0  0  0  0  0  0  0  0  0
   -4.6329   -1.2403   -0.1797 H   0  0  0  0  0  0  0  0  0  0  0  0
   -3.3083   -2.1139   -0.9503 H   0  0  0  0  0  0  0  0  0  0  0  0
  1  2  1  0
  2  3  1  0
  3  4  2  0
  4  5  1  0
  5  6  2  0
  6  7  1  0
  7  8  1  0
  8  9  2  0
  9 10  1  0
 10 11  2  0
 11 12  1  0
 12 13  2  0
 13 14  1  0
 14 15  2  0
 14 16  1  0
  9 17  1  0
 17 18  1  0
 11  3  1  0
  8  4  1  0
 16 10  1  0
  1 19  1  0
  1 20  1  0
  1 21  1  0
  5 22  1  0
  6 23  1  0
 12 24  1  0
 13 25  1  0
 18 26  1  0
 18 27  1  0
 18 28  1  0
M  END
>  <Name>  (668) 
Isopimpinellin

>  <PubChem ID>  (668) 
68079

>  <CDB ID>  (668) 
CDB0668

>  <Smiles>  (668) 
COC1=C2C=COC2=C(C3=C1C=CC(=O)O3)OC

>  <Chemical class>  (668) 
5,7,8-Trioxygenated Coumarins

>  <Natural source>  (668) 
Pimpinella saxifraga

>  <Molecular Formula>  (668) 
C13H10O5

>  <InChI-Key>  (668) 
DFMAXQKDIGCMTL-UHFFFAOYSA-N

>  <Total Molweight>  (668) 
246.217

>  <cLogP>  (668) 
1.809

>  <cLogS>  (668) 
-3.565

>  <H-Acceptors>  (668) 
5

>  <H-Donors>  (668) 
0

>  <Rotatable Bonds>  (668) 
2

>  <Polar Surface Area>  (668) 
57.9

$$$$
CDB0669
     RDKit          3D

 38 40  0  0  0  0  0  0  0  0999 V2000
    5.6141    0.1666   -1.3037 C   0  0  0  0  0  0  0  0  0  0  0  0
    4.4067    0.6313   -0.5311 C   0  0  0  0  0  0  0  0  0  0  0  0
    3.1663    0.4529   -1.0284 C   0  0  0  0  0  0  0  0  0  0  0  0
    1.8479    0.8167   -0.4061 C   0  0  0  0  0  0  0  0  0  0  0  0
    0.9997   -0.3246   -0.5326 O   0  0  0  0  0  0  0  0  0  0  0  0
   -0.2903   -0.2037   -0.0481 C   0  0  0  0  0  0  0  0  0  0  0  0
   -0.8883    0.9144    0.5505 C   0  0  0  0  0  0  0  0  0  0  0  0
   -2.2078    0.9397    1.0043 C   0  0  0  0  0  0  0  0  0  0  0  0
   -3.0042   -0.2148    0.8439 C   0  0  0  0  0  0  0  0  0  0  0  0
   -2.4393   -1.3765    0.2871 C   0  0  0  0  0  0  0  0  0  0  0  0
   -1.1131   -1.3413   -0.1537 C   0  0  0  0  0  0  0  0  0  0  0  0
   -0.5336   -2.4976   -0.7445 O   0  0  0  0  0  0  0  0  0  0  0  0
   -1.2314   -3.6839   -0.8972 C   0  0  0  0  0  0  0  0  0  0  0  0
   -0.7428   -4.6809   -1.4152 O   0  0  0  0  0  0  0  0  0  0  0  0
   -2.6154   -3.6969   -0.4006 C   0  0  0  0  0  0  0  0  0  0  0  0
   -3.1865   -2.6236    0.1526 C   0  0  0  0  0  0  0  0  0  0  0  0
   -4.3061   -0.2418    1.3023 O   0  0  0  0  0  0  0  0  0  0  0  0
   -5.1737    0.3750    0.3490 C   0  0  0  0  0  0  0  0  0  0  0  0
   -2.4073    2.2344    1.5613 C   0  0  0  0  0  0  0  0  0  0  0  0
   -1.2256    2.9145    1.4009 C   0  0  0  0  0  0  0  0  0  0  0  0
   -0.3063    2.1285    0.7890 O   0  0  0  0  0  0  0  0  0  0  0  0
    4.7296    1.2819    0.7853 C   0  0  0  0  0  0  0  0  0  0  0  0
    6.2673    1.0150   -1.5328 H   0  0  0  0  0  0  0  0  0  0  0  0
    5.3440   -0.3102   -2.2518 H   0  0  0  0  0  0  0  0  0  0  0  0
    6.1821   -0.5619   -0.7159 H   0  0  0  0  0  0  0  0  0  0  0  0
    3.0644   -0.0236   -2.0033 H   0  0  0  0  0  0  0  0  0  0  0  0
    1.9590    1.0726    0.6501 H   0  0  0  0  0  0  0  0  0  0  0  0
    1.4296    1.6586   -0.9691 H   0  0  0  0  0  0  0  0  0  0  0  0
   -3.1460   -4.6349   -0.5085 H   0  0  0  0  0  0  0  0  0  0  0  0
   -4.2071   -2.6662    0.5185 H   0  0  0  0  0  0  0  0  0  0  0  0
   -5.0744   -0.0863   -0.6401 H   0  0  0  0  0  0  0  0  0  0  0  0
   -4.9915    1.4525    0.2861 H   0  0  0  0  0  0  0  0  0  0  0  0
   -6.2028    0.2262    0.6895 H   0  0  0  0  0  0  0  0  0  0  0  0
   -3.3065    2.6162    2.0238 H   0  0  0  0  0  0  0  0  0  0  0  0
   -0.8931    3.9110    1.6576 H   0  0  0  0  0  0  0  0  0  0  0  0
    5.4424    2.0999    0.6348 H   0  0  0  0  0  0  0  0  0  0  0  0
    3.8581    1.7090    1.2857 H   0  0  0  0  0  0  0  0  0  0  0  0
    5.1821    0.5519    1.4644 H   0  0  0  0  0  0  0  0  0  0  0  0
  1  2  1  0
  2  3  2  3
  3  4  1  0
  4  5  1  0
  5  6  1  0
  6  7  2  0
  7  8  1  0
  8  9  2  0
  9 10  1  0
 10 11  2  0
 11 12  1  0
 12 13  1  0
 13 14  2  0
 13 15  1  0
 15 16  2  0
  9 17  1  0
 17 18  1  0
  8 19  1  0
 19 20  2  0
 20 21  1  0
  2 22  1  0
 11  6  1  0
 21  7  1  0
 16 10  1  0
  1 23  1  0
  1 24  1  0
  1 25  1  0
  3 26  1  0
  4 27  1  0
  4 28  1  0
 15 29  1  0
 16 30  1  0
 18 31  1  0
 18 32  1  0
 18 33  1  0
 19 34  1  0
 20 35  1  0
 22 36  1  0
 22 37  1  0
 22 38  1  0
M  END
>  <Name>  (669) 
Phellopterin

>  <PubChem ID>  (669) 
98608

>  <CDB ID>  (669) 
CDB0669

>  <Smiles>  (669) 
CC(=CCOC1=C2C(=C(C3=C1OC(=O)C=C3)OC)C=CO2)C

>  <Chemical class>  (669) 
5,7,8-Trioxygenated Coumarins

>  <Natural source>  (669) 
Phellopterus littoralis

>  <Molecular Formula>  (669) 
C17H16O5

>  <InChI-Key>  (669) 
BMLZFLQMBMYVHG-UHFFFAOYSA-N

>  <Total Molweight>  (669) 
300.309

>  <cLogP>  (669) 
3.4783

>  <cLogS>  (669) 
-4.301

>  <H-Acceptors>  (669) 
5

>  <H-Donors>  (669) 
0

>  <Rotatable Bonds>  (669) 
4

>  <Polar Surface Area>  (669) 
57.9

$$$$
CDB0670
     RDKit          3D

 41 43  0  0  0  0  0  0  0  0999 V2000
   -5.1304   -0.8496    1.2596 C   0  0  0  0  0  0  0  0  0  0  0  0
   -4.5719   -0.5820   -0.0283 O   0  0  0  0  0  0  0  0  0  0  0  0
   -3.2018   -0.4441    0.0694 C   0  0  0  0  0  0  0  0  0  0  0  0
   -2.3631   -1.5796    0.0978 C   0  0  0  0  0  0  0  0  0  0  0  0
   -2.5686   -2.9877    0.0629 C   0  0  0  0  0  0  0  0  0  0  0  0
   -1.3250   -3.5654    0.1313 C   0  0  0  0  0  0  0  0  0  0  0  0
   -0.3633   -2.6124    0.1987 O   0  0  0  0  0  0  0  0  0  0  0  0
   -0.9818   -1.3934    0.1689 C   0  0  0  0  0  0  0  0  0  0  0  0
   -0.3654   -0.1347    0.1987 C   0  0  0  0  0  0  0  0  0  0  0  0
    0.9846    0.1550    0.2756 O   0  0  0  0  0  0  0  0  0  0  0  0
    1.8863   -0.9547    0.3138 C   0  0  0  0  0  0  0  0  0  0  0  0
    3.3244   -0.4099    0.3816 C   0  0  2  0  0  0  0  0  0  0  0  0
    3.4883    0.2632    1.6389 O   0  0  0  0  0  0  0  0  0  0  0  0
    3.6993    0.5692   -0.7554 C   0  0  0  0  0  0  0  0  0  0  0  0
    3.4930   -0.0408   -2.1427 C   0  0  0  0  0  0  0  0  0  0  0  0
    5.1549    1.0322   -0.6119 C   0  0  0  0  0  0  0  0  0  0  0  0
   -1.2407    0.9657    0.1316 C   0  0  0  0  0  0  0  0  0  0  0  0
   -2.6307    0.8413    0.0544 C   0  0  0  0  0  0  0  0  0  0  0  0
   -3.4353    2.0560   -0.0403 C   0  0  0  0  0  0  0  0  0  0  0  0
   -2.8497    3.2566   -0.0334 C   0  0  0  0  0  0  0  0  0  0  0  0
   -1.3922    3.4203    0.0696 C   0  0  0  0  0  0  0  0  0  0  0  0
   -0.8849    4.5351    0.0871 O   0  0  0  0  0  0  0  0  0  0  0  0
   -0.6449    2.2565    0.1439 O   0  0  0  0  0  0  0  0  0  0  0  0
   -4.8421   -1.8428    1.6182 H   0  0  0  0  0  0  0  0  0  0  0  0
   -4.8422   -0.0834    1.9881 H   0  0  0  0  0  0  0  0  0  0  0  0
   -6.2199   -0.8297    1.1612 H   0  0  0  0  0  0  0  0  0  0  0  0
   -3.5124   -3.5098   -0.0056 H   0  0  0  0  0  0  0  0  0  0  0  0
   -0.9726   -4.5878    0.1389 H   0  0  0  0  0  0  0  0  0  0  0  0
    1.6930   -1.5417    1.2196 H   0  0  0  0  0  0  0  0  0  0  0  0
    1.7684   -1.5788   -0.5779 H   0  0  0  0  0  0  0  0  0  0  0  0
    4.0187   -1.2582    0.3851 H   0  0  0  0  0  0  0  0  0  0  0  0
    2.7875    0.9422    1.6757 H   0  0  0  0  0  0  0  0  0  0  0  0
    3.0745    1.4683   -0.6755 H   0  0  0  0  0  0  0  0  0  0  0  0
    2.4351   -0.2431   -2.3358 H   0  0  0  0  0  0  0  0  0  0  0  0
    4.0473   -0.9793   -2.2492 H   0  0  0  0  0  0  0  0  0  0  0  0
    3.8366    0.6450   -2.9247 H   0  0  0  0  0  0  0  0  0  0  0  0
    5.8465    0.1843   -0.6631 H   0  0  0  0  0  0  0  0  0  0  0  0
    5.3168    1.5463    0.3410 H   0  0  0  0  0  0  0  0  0  0  0  0
    5.4199    1.7332   -1.4108 H   0  0  0  0  0  0  0  0  0  0  0  0
   -4.5132    1.9661   -0.1266 H   0  0  0  0  0  0  0  0  0  0  0  0
   -3.4232    4.1725   -0.1065 H   0  0  0  0  0  0  0  0  0  0  0  0
  1  2  1  0
  2  3  1  0
  3  4  2  0
  4  5  1  0
  5  6  2  0
  6  7  1  0
  7  8  1  0
  8  9  2  0
  9 10  1  0
 10 11  1  0
 11 12  1  0
 12 13  1  0
 12 14  1  0
 14 15  1  0
 14 16  1  0
  9 17  1  0
 17 18  2  0
 18 19  1  0
 19 20  2  0
 20 21  1  0
 21 22  2  0
 21 23  1  0
 18  3  1  0
  8  4  1  0
 23 17  1  0
  1 24  1  0
  1 25  1  0
  1 26  1  0
  5 27  1  0
  6 28  1  0
 11 29  1  0
 11 30  1  0
 12 31  1  1
 13 32  1  0
 14 33  1  0
 15 34  1  0
 15 35  1  0
 15 36  1  0
 16 37  1  0
 16 38  1  0
 16 39  1  0
 19 40  1  0
 20 41  1  0
M  END
>  <Name>  (670) 
Heracol

>  <PubChem ID>  (670) 
15596588

>  <CDB ID>  (670) 
CDB0670

>  <Smiles>  (670) 
COC1=C2C=COC2=C(OC[C@H](O)C(C)C)C2=C1C=CC(=O)O2

>  <Chemical class>  (670) 
5,7,8-Trioxygenated Coumarins

>  <Natural source>  (670) 
Heracleum asperum

>  <Molecular Formula>  (670) 
C17H18O6

>  <InChI-Key>  (670) 
XRBMPACVVNZLIO-LBPRGKRZSA-N

>  <Total Molweight>  (670) 
318.324

>  <cLogP>  (670) 
2.3206

>  <cLogS>  (670) 
-4.166

>  <H-Acceptors>  (670) 
6

>  <H-Donors>  (670) 
1

>  <Rotatable Bonds>  (670) 
5

>  <Polar Surface Area>  (670) 
78.13

$$$$
CDB0671
     RDKit          3D

 39 41  0  0  0  0  0  0  0  0999 V2000
   -4.5099    1.5646    1.1158 C   0  0  0  0  0  0  0  0  0  0  0  0
   -4.2049    0.4515    0.4244 C   0  0  0  0  0  0  0  0  0  0  0  0
   -5.0429   -0.7907    0.5697 C   0  0  0  0  0  0  0  0  0  0  0  0
   -3.0552    0.3576   -0.5635 C   0  0  1  0  0  0  0  0  0  0  0  0
   -2.5773    1.6718   -0.8818 O   0  0  0  0  0  0  0  0  0  0  0  0
   -1.8812   -0.4826   -0.0290 C   0  0  0  0  0  0  0  0  0  0  0  0
   -0.9616   -0.7020   -1.1159 O   0  0  0  0  0  0  0  0  0  0  0  0
    0.3241   -0.4250   -0.7376 C   0  0  0  0  0  0  0  0  0  0  0  0
    0.9435    0.7640   -1.1196 C   0  0  0  0  0  0  0  0  0  0  0  0
    0.3652    1.7647   -1.8442 O   0  0  0  0  0  0  0  0  0  0  0  0
    1.3058    2.7310   -2.0050 C   0  0  0  0  0  0  0  0  0  0  0  0
    2.4813    2.3691   -1.3888 C   0  0  0  0  0  0  0  0  0  0  0  0
    2.2551    1.0951   -0.7975 C   0  0  0  0  0  0  0  0  0  0  0  0
    3.0089    0.1765   -0.0333 C   0  0  0  0  0  0  0  0  0  0  0  0
    4.3252    0.4367    0.2917 O   0  0  0  0  0  0  0  0  0  0  0  0
    4.3893    1.3284    1.4063 C   0  0  0  0  0  0  0  0  0  0  0  0
    2.4378   -1.0629    0.3283 C   0  0  0  0  0  0  0  0  0  0  0  0
    1.1116   -1.3341   -0.0221 C   0  0  0  0  0  0  0  0  0  0  0  0
    0.5081   -2.5611    0.3451 O   0  0  0  0  0  0  0  0  0  0  0  0
    1.1943   -3.5348    1.0530 C   0  0  0  0  0  0  0  0  0  0  0  0
    0.6753   -4.5910    1.3931 O   0  0  0  0  0  0  0  0  0  0  0  0
    2.5948   -3.2384    1.3905 C   0  0  0  0  0  0  0  0  0  0  0  0
    3.1824   -2.0858    1.0572 C   0  0  0  0  0  0  0  0  0  0  0  0
   -5.3504    1.6031    1.8010 H   0  0  0  0  0  0  0  0  0  0  0  0
   -3.9267    2.4749    1.0053 H   0  0  0  0  0  0  0  0  0  0  0  0
   -5.9031   -0.6320    1.2291 H   0  0  0  0  0  0  0  0  0  0  0  0
   -5.4299   -1.1041   -0.4053 H   0  0  0  0  0  0  0  0  0  0  0  0
   -4.4528   -1.6100    0.9909 H   0  0  0  0  0  0  0  0  0  0  0  0
   -3.4216   -0.0647   -1.5069 H   0  0  0  0  0  0  0  0  0  0  0  0
   -1.7880    1.5466   -1.4437 H   0  0  0  0  0  0  0  0  0  0  0  0
   -1.4060    0.0372    0.8150 H   0  0  0  0  0  0  0  0  0  0  0  0
   -2.2188   -1.4669    0.3116 H   0  0  0  0  0  0  0  0  0  0  0  0
    0.9928    3.5967   -2.5729 H   0  0  0  0  0  0  0  0  0  0  0  0
    3.3932    2.9488   -1.3672 H   0  0  0  0  0  0  0  0  0  0  0  0
    4.0578    2.3338    1.1286 H   0  0  0  0  0  0  0  0  0  0  0  0
    3.8031    0.9542    2.2532 H   0  0  0  0  0  0  0  0  0  0  0  0
    5.4349    1.3933    1.7215 H   0  0  0  0  0  0  0  0  0  0  0  0
    3.1254   -4.0156    1.9271 H   0  0  0  0  0  0  0  0  0  0  0  0
    4.2203   -1.8979    1.3120 H   0  0  0  0  0  0  0  0  0  0  0  0
  1  2  2  0
  2  3  1  0
  2  4  1  0
  4  5  1  0
  4  6  1  0
  6  7  1  0
  7  8  1  0
  8  9  2  0
  9 10  1  0
 10 11  1  0
 11 12  2  0
 12 13  1  0
 13 14  2  0
 14 15  1  0
 15 16  1  0
 14 17  1  0
 17 18  2  0
 18 19  1  0
 19 20  1  0
 20 21  2  0
 20 22  1  0
 22 23  2  0
 18  8  1  0
 13  9  1  0
 23 17  1  0
  1 24  1  0
  1 25  1  0
  3 26  1  0
  3 27  1  0
  3 28  1  0
  4 29  1  6
  5 30  1  0
  6 31  1  0
  6 32  1  0
 11 33  1  0
 12 34  1  0
 16 35  1  0
 16 36  1  0
 16 37  1  0
 22 38  1  0
 23 39  1  0
M  END
>  <Name>  (671) 
Neobyakangelicol

>  <PubChem ID>  (671) 
616064

>  <CDB ID>  (671) 
CDB0671

>  <Smiles>  (671) 
C=C(C)[C@@H](O)COC1=C2OC=CC2=C(OC)C2=C1OC(=O)C=C2

>  <Chemical class>  (671) 
5,7,8-Trioxygenated Coumarins

>  <Natural source>  (671) 
Angelica dahurica

>  <Molecular Formula>  (671) 
C17H16O6

>  <InChI-Key>  (671) 
UBAMGTKSOKGECF-LBPRGKRZSA-N

>  <Total Molweight>  (671) 
316.308

>  <cLogP>  (671) 
2.5232

>  <cLogS>  (671) 
-4.069

>  <H-Acceptors>  (671) 
6

>  <H-Donors>  (671) 
1

>  <Rotatable Bonds>  (671) 
5

>  <Polar Surface Area>  (671) 
78.13

$$$$
CDB0672
     RDKit          3D

 39 42  0  0  0  0  0  0  0  0999 V2000
   -4.2883    1.8345   -0.1107 C   0  0  0  0  0  0  0  0  0  0  0  0
   -4.0709    0.6182    0.6064 O   0  0  0  0  0  0  0  0  0  0  0  0
   -2.7753    0.1804    0.4173 C   0  0  0  0  0  0  0  0  0  0  0  0
   -1.7085    0.7323    1.1612 C   0  0  0  0  0  0  0  0  0  0  0  0
   -1.5685    1.7360    2.1598 C   0  0  0  0  0  0  0  0  0  0  0  0
   -0.2317    1.7893    2.4777 C   0  0  0  0  0  0  0  0  0  0  0  0
    0.4685    0.8848    1.7472 O   0  0  0  0  0  0  0  0  0  0  0  0
   -0.4269    0.2313    0.9518 C   0  0  0  0  0  0  0  0  0  0  0  0
   -0.1303   -0.7899    0.0483 C   0  0  0  0  0  0  0  0  0  0  0  0
    1.1396   -1.2883   -0.0929 O   0  0  0  0  0  0  0  0  0  0  0  0
    1.8252   -0.6675   -1.1906 C   0  0  0  0  0  0  0  0  0  0  0  0
    2.6020    0.5143   -0.7083 C   0  0  2  0  0  0  0  0  0  0  0  0
    3.9388    0.6211   -1.2230 O   0  0  0  0  0  0  0  0  0  0  0  0
    3.8190    0.4021    0.1922 C   0  0  0  0  0  0  0  0  0  0  0  0
    4.1988    1.5851    1.0261 C   0  0  0  0  0  0  0  0  0  0  0  0
    4.3288   -0.9280    0.6506 C   0  0  0  0  0  0  0  0  0  0  0  0
   -1.2181   -1.3510   -0.6326 C   0  0  0  0  0  0  0  0  0  0  0  0
   -2.5284   -0.8945   -0.4624 C   0  0  0  0  0  0  0  0  0  0  0  0
   -3.5945   -1.5603   -1.2051 C   0  0  0  0  0  0  0  0  0  0  0  0
   -3.3101   -2.5669   -2.0361 C   0  0  0  0  0  0  0  0  0  0  0  0
   -1.9368   -3.0484   -2.2492 C   0  0  0  0  0  0  0  0  0  0  0  0
   -1.7054   -3.9581   -3.0362 O   0  0  0  0  0  0  0  0  0  0  0  0
   -0.9394   -2.4158   -1.5244 O   0  0  0  0  0  0  0  0  0  0  0  0
   -4.0262    1.7276   -1.1694 H   0  0  0  0  0  0  0  0  0  0  0  0
   -3.7315    2.6635    0.3373 H   0  0  0  0  0  0  0  0  0  0  0  0
   -5.3545    2.0721   -0.0489 H   0  0  0  0  0  0  0  0  0  0  0  0
   -2.3518    2.3391    2.5966 H   0  0  0  0  0  0  0  0  0  0  0  0
    0.3513    2.3811    3.1700 H   0  0  0  0  0  0  0  0  0  0  0  0
    2.4876   -1.4260   -1.6222 H   0  0  0  0  0  0  0  0  0  0  0  0
    1.1381   -0.3693   -1.9936 H   0  0  0  0  0  0  0  0  0  0  0  0
    2.0015    1.4131   -0.6590 H   0  0  0  0  0  0  0  0  0  0  0  0
    5.2875    1.6603    1.1146 H   0  0  0  0  0  0  0  0  0  0  0  0
    3.8328    2.5237    0.5963 H   0  0  0  0  0  0  0  0  0  0  0  0
    3.7774    1.4893    2.0319 H   0  0  0  0  0  0  0  0  0  0  0  0
    5.3940   -0.8659    0.8972 H   0  0  0  0  0  0  0  0  0  0  0  0
    3.7899   -1.2483    1.5479 H   0  0  0  0  0  0  0  0  0  0  0  0
    4.2174   -1.7067   -0.1099 H   0  0  0  0  0  0  0  0  0  0  0  0
   -4.6188   -1.2324   -1.0610 H   0  0  0  0  0  0  0  0  0  0  0  0
   -4.0822   -3.0817   -2.5950 H   0  0  0  0  0  0  0  0  0  0  0  0
  1  2  1  0
  2  3  1  0
  3  4  2  0
  4  5  1  0
  5  6  2  0
  6  7  1  0
  7  8  1  0
  8  9  2  0
  9 10  1  0
 10 11  1  0
 11 12  1  0
 12 13  1  0
 13 14  1  0
 14 15  1  0
 14 16  1  0
  9 17  1  0
 17 18  2  0
 18 19  1  0
 19 20  2  0
 20 21  1  0
 21 22  2  0
 21 23  1  0
 18  3  1  0
  8  4  1  0
 14 12  1  0
 23 17  1  0
  1 24  1  0
  1 25  1  0
  1 26  1  0
  5 27  1  0
  6 28  1  0
 11 29  1  0
 11 30  1  0
 12 31  1  1
 15 32  1  0
 15 33  1  0
 15 34  1  0
 16 35  1  0
 16 36  1  0
 16 37  1  0
 19 38  1  0
 20 39  1  0
M  END
>  <Name>  (672) 
Byakangelicol

>  <PubChem ID>  (672) 
3055167

>  <CDB ID>  (672) 
CDB0672

>  <Smiles>  (672) 
COC1=C2C=COC2=C(OC[C@@H]2OC2(C)C)C2=C1C=CC(=O)O2

>  <Chemical class>  (672) 
5,7,8-Trioxygenated Coumarins

>  <Natural source>  (672) 
Angelica glabra

>  <Molecular Formula>  (672) 
C17H16O6

>  <InChI-Key>  (672) 
ORBITTMJKIGFNH-NSHDSACASA-N

>  <Total Molweight>  (672) 
316.308

>  <cLogP>  (672) 
2.0475

>  <cLogS>  (672) 
-4.197

>  <H-Acceptors>  (672) 
6

>  <H-Donors>  (672) 
0

>  <Rotatable Bonds>  (672) 
4

>  <Polar Surface Area>  (672) 
70.43

$$$$
CDB0673
     RDKit          3D

 34 36  0  0  0  0  0  0  0  0999 V2000
    3.2949   -1.5282   -0.6311 C   0  0  0  0  0  0  0  0  0  0  0  0
    2.4382   -0.2729   -0.6937 C   0  0  0  0  0  0  0  0  0  0  0  0
    1.4746   -0.1257    0.4823 C   0  0  0  0  0  0  0  0  0  0  0  0
    0.2803   -1.0293    0.4195 C   0  0  0  0  0  0  0  0  0  0  0  0
   -1.0273   -0.7355    0.3414 C   0  0  0  0  0  0  0  0  0  0  0  0
   -2.0729   -1.7562    0.4549 C   0  0  0  0  0  0  0  0  0  0  0  0
   -3.2872   -1.1889    0.5231 C   0  0  0  0  0  0  0  0  0  0  0  0
   -3.1345    0.2792    0.4383 C   0  0  0  0  0  0  0  0  0  0  0  0
   -4.0595    1.0587    0.5569 O   0  0  0  0  0  0  0  0  0  0  0  0
   -1.6730    0.5668    0.2118 C   0  0  0  0  0  0  0  0  0  0  0  0
   -1.1644    1.7662   -0.1331 C   0  0  0  0  0  0  0  0  0  0  0  0
    0.2992    2.0121   -0.4091 C   0  0  0  0  0  0  0  0  0  0  0  0
    1.2937    1.3800    0.5634 C   0  0  0  0  0  0  0  0  0  0  0  0
    2.6037    1.8856    0.2372 O   0  0  0  0  0  0  0  0  0  0  0  0
    3.2649    0.9789   -0.5436 C   0  0  0  0  0  0  0  0  0  0  0  0
    4.3555    1.1838   -1.0495 O   0  0  0  0  0  0  0  0  0  0  0  0
   -2.0070    3.0026   -0.3566 C   0  0  0  0  0  0  0  0  0  0  0  0
   -1.8251   -3.2261    0.5079 C   0  0  0  0  0  0  0  0  0  0  0  0
    4.0083   -1.5491   -1.4621 H   0  0  0  0  0  0  0  0  0  0  0  0
    3.8767   -1.5715    0.2963 H   0  0  0  0  0  0  0  0  0  0  0  0
    2.6809   -2.4316   -0.6946 H   0  0  0  0  0  0  0  0  0  0  0  0
    1.9122   -0.2223   -1.6544 H   0  0  0  0  0  0  0  0  0  0  0  0
    2.0195   -0.4159    1.3951 H   0  0  0  0  0  0  0  0  0  0  0  0
    0.5567   -2.0788    0.5257 H   0  0  0  0  0  0  0  0  0  0  0  0
   -4.2476   -1.6635    0.6277 H   0  0  0  0  0  0  0  0  0  0  0  0
    0.5187    1.7284   -1.4465 H   0  0  0  0  0  0  0  0  0  0  0  0
    0.4892    3.0950   -0.3807 H   0  0  0  0  0  0  0  0  0  0  0  0
    1.0628    1.6856    1.5910 H   0  0  0  0  0  0  0  0  0  0  0  0
   -1.6448    3.5531   -1.2330 H   0  0  0  0  0  0  0  0  0  0  0  0
   -1.9402    3.6638    0.5132 H   0  0  0  0  0  0  0  0  0  0  0  0
   -3.0575    2.7960   -0.5618 H   0  0  0  0  0  0  0  0  0  0  0  0
   -1.2338   -3.4900    1.3907 H   0  0  0  0  0  0  0  0  0  0  0  0
   -2.7637   -3.7887    0.5608 H   0  0  0  0  0  0  0  0  0  0  0  0
   -1.2914   -3.5615   -0.3873 H   0  0  0  0  0  0  0  0  0  0  0  0
  1  2  1  0
  2  3  1  0
  3  4  1  0
  4  5  2  0
  5  6  1  0
  6  7  2  0
  7  8  1  0
  8  9  2  0
  8 10  1  0
 10 11  2  0
 11 12  1  0
 12 13  1  0
 13 14  1  0
 14 15  1  0
 15 16  2  0
 11 17  1  0
  6 18  1  0
 15  2  1  0
 13  3  1  0
 10  5  1  0
  1 19  1  0
  1 20  1  0
  1 21  1  0
  2 22  1  0
  3 23  1  0
  4 24  1  0
  7 25  1  0
 12 26  1  0
 12 27  1  0
 13 28  1  0
 17 29  1  0
 17 30  1  0
 17 31  1  0
 18 32  1  0
 18 33  1  0
 18 34  1  0
M  END
>  <Name>  (673) 
Ferulin

>  <PubChem ID>  (673) 
11896611

>  <CDB ID>  (673) 
CDB0673

>  <Smiles>  (673) 
CC1C2C=C3C(=CC(=O)C3=C(CC2OC1=O)C)C

>  <Chemical class>  (673) 
5,7,8-Trioxygenated Coumarins

>  <Natural source>  (673) 
Ferula alliaceae

>  <Molecular Formula>  (673) 
C15H16O3

>  <InChI-Key>  (673) 
FRBORWNVTCITAQ-UHFFFAOYSA-N

>  <Total Molweight>  (673) 
244.289

>  <cLogP>  (673) 
1.8509

>  <cLogS>  (673) 
-2.387

>  <H-Acceptors>  (673) 
3

>  <H-Donors>  (673) 
0

>  <Rotatable Bonds>  (673) 
0

>  <Polar Surface Area>  (673) 
43.37

$$$$
CDB0674
     RDKit          3D

 39 41  0  0  0  0  0  0  0  0999 V2000
   -5.5331    0.9852   -0.6722 C   0  0  0  0  0  0  0  0  0  0  0  0
   -4.4173    0.5404    0.2693 C   0  0  0  0  0  0  0  0  0  0  0  0
   -4.9115   -0.5292    1.2356 C   0  0  0  0  0  0  0  0  0  0  0  0
   -3.2183    0.0107   -0.5166 C   0  0  0  0  0  0  0  0  0  0  0  0
   -3.3609   -0.5345   -1.6114 O   0  0  0  0  0  0  0  0  0  0  0  0
   -1.8557    0.1833    0.1577 C   0  0  0  0  0  0  0  0  0  0  0  0
   -0.8101   -0.3517   -0.6376 O   0  0  0  0  0  0  0  0  0  0  0  0
    0.4709   -0.2623   -0.1229 C   0  0  0  0  0  0  0  0  0  0  0  0
    0.8754    0.3233    1.0858 C   0  0  0  0  0  0  0  0  0  0  0  0
    2.2004    0.3739    1.5199 C   0  0  0  0  0  0  0  0  0  0  0  0
    3.2062   -0.1792    0.6985 C   0  0  0  0  0  0  0  0  0  0  0  0
    2.8489   -0.8161   -0.5038 C   0  0  0  0  0  0  0  0  0  0  0  0
    1.5051   -0.8318   -0.8903 C   0  0  0  0  0  0  0  0  0  0  0  0
    1.1297   -1.4484   -2.1152 O   0  0  0  0  0  0  0  0  0  0  0  0
    2.0483   -2.0557   -2.9553 C   0  0  0  0  0  0  0  0  0  0  0  0
    1.7366   -2.5818   -4.0167 O   0  0  0  0  0  0  0  0  0  0  0  0
    3.4494   -2.0432   -2.5087 C   0  0  0  0  0  0  0  0  0  0  0  0
    3.8311   -1.4662   -1.3663 C   0  0  0  0  0  0  0  0  0  0  0  0
    4.5258   -0.1743    1.1033 O   0  0  0  0  0  0  0  0  0  0  0  0
    5.1244    1.0887    0.8054 C   0  0  0  0  0  0  0  0  0  0  0  0
    2.1746    1.0199    2.7878 C   0  0  0  0  0  0  0  0  0  0  0  0
    0.8621    1.3342    3.0393 C   0  0  0  0  0  0  0  0  0  0  0  0
    0.0720    0.9221    2.0174 O   0  0  0  0  0  0  0  0  0  0  0  0
   -5.9342    0.1432   -1.2472 H   0  0  0  0  0  0  0  0  0  0  0  0
   -5.1647    1.7287   -1.3873 H   0  0  0  0  0  0  0  0  0  0  0  0
   -6.3587    1.4348   -0.1106 H   0  0  0  0  0  0  0  0  0  0  0  0
   -4.0861    1.4193    0.8353 H   0  0  0  0  0  0  0  0  0  0  0  0
   -5.2192   -1.4351    0.7015 H   0  0  0  0  0  0  0  0  0  0  0  0
   -4.1256   -0.8168    1.9417 H   0  0  0  0  0  0  0  0  0  0  0  0
   -5.7669   -0.1669    1.8151 H   0  0  0  0  0  0  0  0  0  0  0  0
   -1.9028   -0.3431    1.1168 H   0  0  0  0  0  0  0  0  0  0  0  0
   -1.7082    1.2604    0.2942 H   0  0  0  0  0  0  0  0  0  0  0  0
    4.1567   -2.5357   -3.1647 H   0  0  0  0  0  0  0  0  0  0  0  0
    4.8716   -1.4820   -1.0592 H   0  0  0  0  0  0  0  0  0  0  0  0
    4.7008    1.8844    1.4265 H   0  0  0  0  0  0  0  0  0  0  0  0
    6.1917    1.0141    1.0341 H   0  0  0  0  0  0  0  0  0  0  0  0
    5.0224    1.3397   -0.2563 H   0  0  0  0  0  0  0  0  0  0  0  0
    3.0163    1.2250    3.4343 H   0  0  0  0  0  0  0  0  0  0  0  0
    0.3529    1.8226    3.8588 H   0  0  0  0  0  0  0  0  0  0  0  0
  1  2  1  0
  2  3  1  0
  2  4  1  0
  4  5  2  0
  4  6  1  0
  6  7  1  0
  7  8  1  0
  8  9  2  0
  9 10  1  0
 10 11  2  0
 11 12  1  0
 12 13  2  0
 13 14  1  0
 14 15  1  0
 15 16  2  0
 15 17  1  0
 17 18  2  0
 11 19  1  0
 19 20  1  0
 10 21  1  0
 21 22  2  0
 22 23  1  0
 13  8  1  0
 23  9  1  0
 18 12  1  0
  1 24  1  0
  1 25  1  0
  1 26  1  0
  2 27  1  0
  3 28  1  0
  3 29  1  0
  3 30  1  0
  6 31  1  0
  6 32  1  0
 17 33  1  0
 18 34  1  0
 20 35  1  0
 20 36  1  0
 20 37  1  0
 21 38  1  0
 22 39  1  0
M  END
>  <Name>  (674) 
Isobyakangelicol

>  <PubChem ID>  (674) 
5318521

>  <CDB ID>  (674) 
CDB0674

>  <Smiles>  (674) 
CC(C)C(=O)COC1=C2C(=C(C3=C1OC(=O)C=C3)OC)C=CO2

>  <Chemical class>  (674) 
5,7,8-Trioxygenated Coumarins

>  <Natural source>  (674) 
Angelica dahurica

>  <Molecular Formula>  (674) 
C17H16O6

>  <InChI-Key>  (674) 
GYJATVZZLSOXTA-UHFFFAOYSA-N

>  <Total Molweight>  (674) 
316.308

>  <cLogP>  (674) 
2.2894

>  <cLogS>  (674) 
-4.217

>  <H-Acceptors>  (674) 
6

>  <H-Donors>  (674) 
0

>  <Rotatable Bonds>  (674) 
5

>  <Polar Surface Area>  (674) 
74.97

$$$$
CDB0675
     RDKit          3D

 82 84  0  0  0  0  0  0  0  0999 V2000
    8.3645   -5.1417   -1.4317 C   0  0  0  0  0  0  0  0  0  0  0  0
    7.0963   -4.7122   -2.1530 C   0  0  0  0  0  0  0  0  0  0  0  0
    6.2939   -3.6506   -1.3963 C   0  0  0  0  0  0  0  0  0  0  0  0
    5.7320   -4.1554   -0.0645 C   0  0  0  0  0  0  0  0  0  0  0  0
    4.7536   -3.1731    0.5891 C   0  0  0  0  0  0  0  0  0  0  0  0
    5.4141   -1.8586    1.0191 C   0  0  0  0  0  0  0  0  0  0  0  0
    4.4862   -0.9522    1.8364 C   0  0  0  0  0  0  0  0  0  0  0  0
    3.3152   -0.4432    1.0466 C   0  0  0  0  0  0  0  0  0  0  0  0
    3.1420    0.8432    0.6933 C   0  0  0  0  0  0  0  0  0  0  0  0
    1.9934    1.4065   -0.1089 C   0  0  0  0  0  0  0  0  0  0  0  0
    1.3133    2.4399    0.6815 C   0  0  0  0  0  0  0  0  0  0  0  0
    0.6966    3.2699    1.2910 C   0  0  0  0  0  0  0  0  0  0  0  0
   -0.1635    4.3068    2.0316 C   0  0  0  0  0  0  0  0  0  0  0  0
   -0.8808    5.0942    2.5850 C   0  0  0  0  0  0  0  0  0  0  0  0
   -1.8068    6.0208    3.2396 C   0  0  0  0  0  0  0  0  0  0  0  0
   -1.0745    7.2477    3.6887 C   0  0  0  0  0  0  0  0  0  0  0  0
   -0.9018    7.6208    4.9651 C   0  0  0  0  0  0  0  0  0  0  0  0
   -2.8019    6.4419    2.3179 O   0  0  0  0  0  0  0  0  0  0  0  0
    1.0549    0.3771   -0.4029 O   0  0  0  0  0  0  0  0  0  0  0  0
    0.5629    0.2636   -1.7502 C   0  0  0  0  0  0  0  0  0  0  0  0
   -0.0357    1.5888   -2.2522 C   0  0  0  0  0  0  0  0  0  0  0  0
    1.7053   -0.1794   -2.6847 C   0  0  0  0  0  0  0  0  0  0  0  0
   -0.5392   -0.8536   -1.7309 C   0  0  0  0  0  0  0  0  0  0  0  0
   -1.6639   -0.6032   -0.7067 C   0  0  0  0  0  0  0  0  0  0  0  0
   -2.5844    0.3654   -1.2263 O   0  0  0  0  0  0  0  0  0  0  0  0
   -3.8807    0.0883   -0.8695 C   0  0  0  0  0  0  0  0  0  0  0  0
   -4.5927   -1.0093   -1.3616 C   0  0  0  0  0  0  0  0  0  0  0  0
   -5.9266   -1.2666   -1.0600 C   0  0  0  0  0  0  0  0  0  0  0  0
   -6.6071   -0.3697   -0.2072 C   0  0  0  0  0  0  0  0  0  0  0  0
   -5.9467    0.7881    0.2552 C   0  0  0  0  0  0  0  0  0  0  0  0
   -4.6045    0.9914   -0.0810 C   0  0  0  0  0  0  0  0  0  0  0  0
   -3.9152    2.1392    0.3862 O   0  0  0  0  0  0  0  0  0  0  0  0
   -4.5319    3.0965    1.1752 C   0  0  0  0  0  0  0  0  0  0  0  0
   -3.9462    4.0880    1.5990 O   0  0  0  0  0  0  0  0  0  0  0  0
   -5.9492    2.8719    1.4967 C   0  0  0  0  0  0  0  0  0  0  0  0
   -6.6165    1.7955    1.0724 C   0  0  0  0  0  0  0  0  0  0  0  0
   -7.9389   -0.5611    0.1017 O   0  0  0  0  0  0  0  0  0  0  0  0
   -8.0664   -1.5317    1.1424 C   0  0  0  0  0  0  0  0  0  0  0  0
   -6.2579   -2.4546   -1.7691 C   0  0  0  0  0  0  0  0  0  0  0  0
   -5.1213   -2.8414   -2.4394 C   0  0  0  0  0  0  0  0  0  0  0  0
   -4.1054   -1.9743   -2.1962 O   0  0  0  0  0  0  0  0  0  0  0  0
    0.0641   -2.1319   -1.4507 O   0  0  0  0  0  0  0  0  0  0  0  0
    8.9401   -5.8281   -2.0610 H   0  0  0  0  0  0  0  0  0  0  0  0
    8.1373   -5.6620   -0.4966 H   0  0  0  0  0  0  0  0  0  0  0  0
    8.9984   -4.2791   -1.2036 H   0  0  0  0  0  0  0  0  0  0  0  0
    7.3734   -4.3050   -3.1328 H   0  0  0  0  0  0  0  0  0  0  0  0
    6.4686   -5.5908   -2.3417 H   0  0  0  0  0  0  0  0  0  0  0  0
    5.4646   -3.3266   -2.0371 H   0  0  0  0  0  0  0  0  0  0  0  0
    6.9291   -2.7732   -1.2298 H   0  0  0  0  0  0  0  0  0  0  0  0
    5.2038   -5.1020   -0.2332 H   0  0  0  0  0  0  0  0  0  0  0  0
    6.5488   -4.3675    0.6347 H   0  0  0  0  0  0  0  0  0  0  0  0
    3.9283   -2.9750   -0.1046 H   0  0  0  0  0  0  0  0  0  0  0  0
    4.3178   -3.6600    1.4703 H   0  0  0  0  0  0  0  0  0  0  0  0
    5.7701   -1.3102    0.1390 H   0  0  0  0  0  0  0  0  0  0  0  0
    6.2961   -2.0858    1.6306 H   0  0  0  0  0  0  0  0  0  0  0  0
    4.1117   -1.4941    2.7130 H   0  0  0  0  0  0  0  0  0  0  0  0
    5.0753   -0.1108    2.2221 H   0  0  0  0  0  0  0  0  0  0  0  0
    2.5628   -1.1782    0.7624 H   0  0  0  0  0  0  0  0  0  0  0  0
    3.8982    1.5705    0.9822 H   0  0  0  0  0  0  0  0  0  0  0  0
    2.4157    1.8497   -1.0158 H   0  0  0  0  0  0  0  0  0  0  0  0
   -2.3106    5.5313    4.0803 H   0  0  0  0  0  0  0  0  0  0  0  0
   -0.6760    7.8798    2.8979 H   0  0  0  0  0  0  0  0  0  0  0  0
   -0.3667    8.5341    5.2057 H   0  0  0  0  0  0  0  0  0  0  0  0
   -1.2899    7.0316    5.7896 H   0  0  0  0  0  0  0  0  0  0  0  0
   -3.2109    5.6146    1.9824 H   0  0  0  0  0  0  0  0  0  0  0  0
    0.7420    2.3360   -2.4441 H   0  0  0  0  0  0  0  0  0  0  0  0
   -0.5851    1.4478   -3.1892 H   0  0  0  0  0  0  0  0  0  0  0  0
   -0.7077    2.0339   -1.5121 H   0  0  0  0  0  0  0  0  0  0  0  0
    2.2475   -1.0369   -2.2709 H   0  0  0  0  0  0  0  0  0  0  0  0
    2.4484    0.6128   -2.8229 H   0  0  0  0  0  0  0  0  0  0  0  0
    1.3253   -0.4483   -3.6760 H   0  0  0  0  0  0  0  0  0  0  0  0
   -0.9752   -0.9301   -2.7353 H   0  0  0  0  0  0  0  0  0  0  0  0
   -2.1507   -1.5573   -0.4655 H   0  0  0  0  0  0  0  0  0  0  0  0
   -1.2641   -0.2245    0.2408 H   0  0  0  0  0  0  0  0  0  0  0  0
   -6.4252    3.6365    2.0987 H   0  0  0  0  0  0  0  0  0  0  0  0
   -7.6651    1.6609    1.3171 H   0  0  0  0  0  0  0  0  0  0  0  0
   -9.1165   -1.5566    1.4483 H   0  0  0  0  0  0  0  0  0  0  0  0
   -7.7944   -2.5309    0.7877 H   0  0  0  0  0  0  0  0  0  0  0  0
   -7.4650   -1.2614    2.0177 H   0  0  0  0  0  0  0  0  0  0  0  0
   -7.2145   -2.9571   -1.7934 H   0  0  0  0  0  0  0  0  0  0  0  0
   -4.8855   -3.6638   -3.1009 H   0  0  0  0  0  0  0  0  0  0  0  0
   -0.6290   -2.8057   -1.5570 H   0  0  0  0  0  0  0  0  0  0  0  0
  1  2  1  0
  2  3  1  0
  3  4  1  0
  4  5  1  0
  5  6  1  0
  6  7  1  0
  7  8  1  0
  8  9  2  3
  9 10  1  0
 10 11  1  0
 11 12  3  0
 12 13  1  0
 13 14  3  0
 14 15  1  0
 15 16  1  0
 16 17  2  0
 15 18  1  0
 10 19  1  0
 19 20  1  0
 20 21  1  0
 20 22  1  0
 20 23  1  0
 23 24  1  0
 24 25  1  0
 25 26  1  0
 26 27  2  0
 27 28  1  0
 28 29  2  0
 29 30  1  0
 30 31  2  0
 31 32  1  0
 32 33  1  0
 33 34  2  0
 33 35  1  0
 35 36  2  0
 29 37  1  0
 37 38  1  0
 28 39  1  0
 39 40  2  0
 40 41  1  0
 23 42  1  0
 31 26  1  0
 41 27  1  0
 36 30  1  0
  1 43  1  0
  1 44  1  0
  1 45  1  0
  2 46  1  0
  2 47  1  0
  3 48  1  0
  3 49  1  0
  4 50  1  0
  4 51  1  0
  5 52  1  0
  5 53  1  0
  6 54  1  0
  6 55  1  0
  7 56  1  0
  7 57  1  0
  8 58  1  0
  9 59  1  0
 10 60  1  0
 15 61  1  0
 16 62  1  0
 17 63  1  0
 17 64  1  0
 18 65  1  0
 21 66  1  0
 21 67  1  0
 21 68  1  0
 22 69  1  0
 22 70  1  0
 22 71  1  0
 23 72  1  0
 24 73  1  0
 24 74  1  0
 35 75  1  0
 36 76  1  0
 38 77  1  0
 38 78  1  0
 38 79  1  0
 39 80  1  0
 40 81  1  0
 42 82  1  0
M  END
>  <Name>  (675) 
Japoangelol A

>  <PubChem ID>  (675) 
10393369

>  <CDB ID>  (675) 
CDB0675

>  <Smiles>  (675) 
CCCCCCCC=CC(C#CC#CC(C=C)O)OC(C)(C)C(COC1=C2C(=C(C3=C1OC(=O)C=C3)OC)C=CO2)O

>  <Chemical class>  (675) 
5,7,8-Trioxygenated Coumarins

>  <Natural source>  (675) 
Angelica japonica

>  <Molecular Formula>  (675) 
C34H40O8

>  <InChI-Key>  (675) 
DUYUEYQXMSACGP-UHFFFAOYSA-N

>  <Total Molweight>  (675) 
576.684

>  <cLogP>  (675) 
6.8211

>  <cLogS>  (675) 
-10.906

>  <H-Acceptors>  (675) 
8

>  <H-Donors>  (675) 
2

>  <Rotatable Bonds>  (675) 
16

>  <Polar Surface Area>  (675) 
107.59

$$$$
CDB0676
     RDKit          3D

 82 84  0  0  0  0  0  0  0  0999 V2000
   13.1029    1.5596   -2.4952 C   0  0  0  0  0  0  0  0  0  0  0  0
   12.1724    0.3574   -2.5163 C   0  0  0  0  0  0  0  0  0  0  0  0
   10.8830    0.6329   -1.7412 C   0  0  0  0  0  0  0  0  0  0  0  0
    9.9535   -0.5825   -1.7637 C   0  0  0  0  0  0  0  0  0  0  0  0
    8.5946   -0.3249   -1.1046 C   0  0  0  0  0  0  0  0  0  0  0  0
    8.6877   -0.0853    0.4064 C   0  0  0  0  0  0  0  0  0  0  0  0
    7.3194    0.1291    1.0630 C   0  0  0  0  0  0  0  0  0  0  0  0
    6.4613   -1.1046    1.0506 C   0  0  0  0  0  0  0  0  0  0  0  0
    5.2619   -1.1777    0.4477 C   0  0  0  0  0  0  0  0  0  0  0  0
    4.3945   -2.4012    0.4274 C   0  0  0  0  0  0  0  0  0  0  0  0
    3.1013   -2.1142    1.0538 C   0  0  0  0  0  0  0  0  0  0  0  0
    2.0408   -1.8808    1.5661 C   0  0  0  0  0  0  0  0  0  0  0  0
    0.6814   -1.5768    2.2200 C   0  0  0  0  0  0  0  0  0  0  0  0
   -0.3796   -1.3373    2.7288 C   0  0  0  0  0  0  0  0  0  0  0  0
   -1.6895   -1.0490    3.3266 C   0  0  0  0  0  0  0  0  0  0  0  0
   -1.6139   -0.6885    4.7897 C   0  0  0  0  0  0  0  0  0  0  0  0
   -0.5478   -0.6780    5.6047 C   0  0  0  0  0  0  0  0  0  0  0  0
   -2.2480    0.0898    2.6710 O   0  0  0  0  0  0  0  0  0  0  0  0
   -3.3967   -0.1064    1.8025 C   0  0  0  0  0  0  0  0  0  0  0  0
   -4.6020   -0.5721    2.6350 C   0  0  0  0  0  0  0  0  0  0  0  0
   -3.0730   -1.1143    0.6905 C   0  0  0  0  0  0  0  0  0  0  0  0
   -3.6391    1.3283    1.2189 C   0  0  0  0  0  0  0  0  0  0  0  0
   -4.9219    1.5630    0.4096 C   0  0  0  0  0  0  0  0  0  0  0  0
   -4.9482    0.7410   -0.7574 O   0  0  0  0  0  0  0  0  0  0  0  0
   -6.1813    0.8073   -1.3613 C   0  0  0  0  0  0  0  0  0  0  0  0
   -6.5864    1.8811   -2.1559 C   0  0  0  0  0  0  0  0  0  0  0  0
   -7.8122    1.9370   -2.8138 C   0  0  0  0  0  0  0  0  0  0  0  0
   -8.7034    0.8498   -2.6691 C   0  0  0  0  0  0  0  0  0  0  0  0
   -8.3084   -0.2805   -1.9234 C   0  0  0  0  0  0  0  0  0  0  0  0
   -7.0652   -0.2759   -1.2855 C   0  0  0  0  0  0  0  0  0  0  0  0
   -6.6542   -1.3854   -0.5071 O   0  0  0  0  0  0  0  0  0  0  0  0
   -7.4497   -2.5078   -0.3471 C   0  0  0  0  0  0  0  0  0  0  0  0
   -7.1121   -3.4590    0.3470 O   0  0  0  0  0  0  0  0  0  0  0  0
   -8.7400   -2.5042   -1.0530 C   0  0  0  0  0  0  0  0  0  0  0  0
   -9.1488   -1.4673   -1.7899 C   0  0  0  0  0  0  0  0  0  0  0  0
   -9.9204    0.8393   -3.3212 O   0  0  0  0  0  0  0  0  0  0  0  0
  -10.8677    1.6346   -2.6061 C   0  0  0  0  0  0  0  0  0  0  0  0
   -7.8135    3.1748   -3.5154 C   0  0  0  0  0  0  0  0  0  0  0  0
   -6.6141    3.7861   -3.2345 C   0  0  0  0  0  0  0  0  0  0  0  0
   -5.8653    3.0106   -2.4098 O   0  0  0  0  0  0  0  0  0  0  0  0
   -3.6381    2.2704    2.3133 O   0  0  0  0  0  0  0  0  0  0  0  0
    4.1984   -2.7762   -0.9293 O   0  0  0  0  0  0  0  0  0  0  0  0
   12.6258    2.4330   -2.9512 H   0  0  0  0  0  0  0  0  0  0  0  0
   13.3863    1.8186   -1.4700 H   0  0  0  0  0  0  0  0  0  0  0  0
   14.0175    1.3409   -3.0553 H   0  0  0  0  0  0  0  0  0  0  0  0
   11.9356    0.1050   -3.5565 H   0  0  0  0  0  0  0  0  0  0  0  0
   12.6901   -0.5060   -2.0824 H   0  0  0  0  0  0  0  0  0  0  0  0
   11.1366    0.8941   -0.7079 H   0  0  0  0  0  0  0  0  0  0  0  0
   10.3694    1.4973   -2.1792 H   0  0  0  0  0  0  0  0  0  0  0  0
   10.4436   -1.4337   -1.2756 H   0  0  0  0  0  0  0  0  0  0  0  0
    9.7756   -0.8761   -2.8058 H   0  0  0  0  0  0  0  0  0  0  0  0
    8.1093    0.5328   -1.5859 H   0  0  0  0  0  0  0  0  0  0  0  0
    7.9595   -1.1972   -1.2992 H   0  0  0  0  0  0  0  0  0  0  0  0
    9.2935    0.8070    0.6001 H   0  0  0  0  0  0  0  0  0  0  0  0
    9.2021   -0.9286    0.8839 H   0  0  0  0  0  0  0  0  0  0  0  0
    6.8077    0.9696    0.5785 H   0  0  0  0  0  0  0  0  0  0  0  0
    7.4741    0.4195    2.1093 H   0  0  0  0  0  0  0  0  0  0  0  0
    6.8571   -1.9742    1.5723 H   0  0  0  0  0  0  0  0  0  0  0  0
    4.8775   -0.3027   -0.0716 H   0  0  0  0  0  0  0  0  0  0  0  0
    4.8812   -3.2414    0.9337 H   0  0  0  0  0  0  0  0  0  0  0  0
   -2.3303   -1.9316    3.2414 H   0  0  0  0  0  0  0  0  0  0  0  0
   -2.5718   -0.4021    5.2214 H   0  0  0  0  0  0  0  0  0  0  0  0
    0.4484   -0.9451    5.2672 H   0  0  0  0  0  0  0  0  0  0  0  0
   -0.6535   -0.3893    6.6463 H   0  0  0  0  0  0  0  0  0  0  0  0
   -5.5093   -0.6511    2.0292 H   0  0  0  0  0  0  0  0  0  0  0  0
   -4.7946    0.1147    3.4664 H   0  0  0  0  0  0  0  0  0  0  0  0
   -4.4340   -1.5570    3.0816 H   0  0  0  0  0  0  0  0  0  0  0  0
   -3.9215   -1.2888    0.0264 H   0  0  0  0  0  0  0  0  0  0  0  0
   -2.7930   -2.0926    1.0934 H   0  0  0  0  0  0  0  0  0  0  0  0
   -2.2229   -0.7707    0.0910 H   0  0  0  0  0  0  0  0  0  0  0  0
   -2.7764    1.5925    0.5936 H   0  0  0  0  0  0  0  0  0  0  0  0
   -4.9537    2.6209    0.1165 H   0  0  0  0  0  0  0  0  0  0  0  0
   -5.8031    1.3881    1.0410 H   0  0  0  0  0  0  0  0  0  0  0  0
   -9.3423   -3.3974   -0.9402 H   0  0  0  0  0  0  0  0  0  0  0  0
  -10.1026   -1.4951   -2.3066 H   0  0  0  0  0  0  0  0  0  0  0  0
  -11.8467    1.4855   -3.0712 H   0  0  0  0  0  0  0  0  0  0  0  0
  -10.6216    2.6990   -2.6723 H   0  0  0  0  0  0  0  0  0  0  0  0
  -10.9406    1.3247   -1.5575 H   0  0  0  0  0  0  0  0  0  0  0  0
   -8.5935    3.5657   -4.1532 H   0  0  0  0  0  0  0  0  0  0  0  0
   -6.1621    4.7227   -3.5310 H   0  0  0  0  0  0  0  0  0  0  0  0
   -2.8782    1.9928    2.8665 H   0  0  0  0  0  0  0  0  0  0  0  0
    3.6485   -2.0857   -1.3342 H   0  0  0  0  0  0  0  0  0  0  0  0
  1  2  1  0
  2  3  1  0
  3  4  1  0
  4  5  1  0
  5  6  1  0
  6  7  1  0
  7  8  1  0
  8  9  2  3
  9 10  1  0
 10 11  1  0
 11 12  3  0
 12 13  1  0
 13 14  3  0
 14 15  1  0
 15 16  1  0
 16 17  2  0
 15 18  1  0
 18 19  1  0
 19 20  1  0
 19 21  1  0
 19 22  1  0
 22 23  1  0
 23 24  1  0
 24 25  1  0
 25 26  2  0
 26 27  1  0
 27 28  2  0
 28 29  1  0
 29 30  2  0
 30 31  1  0
 31 32  1  0
 32 33  2  0
 32 34  1  0
 34 35  2  0
 28 36  1  0
 36 37  1  0
 27 38  1  0
 38 39  2  0
 39 40  1  0
 22 41  1  0
 10 42  1  0
 30 25  1  0
 40 26  1  0
 35 29  1  0
  1 43  1  0
  1 44  1  0
  1 45  1  0
  2 46  1  0
  2 47  1  0
  3 48  1  0
  3 49  1  0
  4 50  1  0
  4 51  1  0
  5 52  1  0
  5 53  1  0
  6 54  1  0
  6 55  1  0
  7 56  1  0
  7 57  1  0
  8 58  1  0
  9 59  1  0
 10 60  1  0
 15 61  1  0
 16 62  1  0
 17 63  1  0
 17 64  1  0
 20 65  1  0
 20 66  1  0
 20 67  1  0
 21 68  1  0
 21 69  1  0
 21 70  1  0
 22 71  1  0
 23 72  1  0
 23 73  1  0
 34 74  1  0
 35 75  1  0
 37 76  1  0
 37 77  1  0
 37 78  1  0
 38 79  1  0
 39 80  1  0
 41 81  1  0
 42 82  1  0
M  END
>  <Name>  (676) 
Japoangelol B

>  <PubChem ID>  (676) 
10483256

>  <CDB ID>  (676) 
CDB0676

>  <Smiles>  (676) 
CCCCCCCC=CC(C#CC#CC(C=C)OC(C)(C)C(COC1=C2C(=C(C3=C1OC(=O)C=C3)OC)C=CO2)O)O

>  <Chemical class>  (676) 
5,7,8-Trioxygenated Coumarins

>  <Natural source>  (676) 
Angelica japonica

>  <Molecular Formula>  (676) 
C34H40O8

>  <InChI-Key>  (676) 
NSWJSXKALYPPSU-UHFFFAOYSA-N

>  <Total Molweight>  (676) 
576.684

>  <cLogP>  (676) 
6.8211

>  <cLogS>  (676) 
-10.906

>  <H-Acceptors>  (676) 
8

>  <H-Donors>  (676) 
2

>  <Rotatable Bonds>  (676) 
16

>  <Polar Surface Area>  (676) 
107.59

$$$$
CDB0677
     RDKit          3D

 42 45  0  0  0  0  0  0  0  0999 V2000
   -5.2765   -0.9300   -0.4643 C   0  0  0  0  0  0  0  0  0  0  0  0
   -4.1512   -0.6769   -1.3071 O   0  0  0  0  0  0  0  0  0  0  0  0
   -3.0079   -0.5440   -0.5446 C   0  0  0  0  0  0  0  0  0  0  0  0
   -2.3110   -1.6828   -0.0820 C   0  0  0  0  0  0  0  0  0  0  0  0
   -2.4802   -3.0922   -0.1751 C   0  0  0  0  0  0  0  0  0  0  0  0
   -1.4418   -3.6591    0.5253 C   0  0  0  0  0  0  0  0  0  0  0  0
   -0.6325   -2.6983    1.0398 O   0  0  0  0  0  0  0  0  0  0  0  0
   -1.1473   -1.4929    0.6583 C   0  0  0  0  0  0  0  0  0  0  0  0
   -0.6081   -0.2375    0.9483 C   0  0  0  0  0  0  0  0  0  0  0  0
    0.5109   -0.0424    1.7239 O   0  0  0  0  0  0  0  0  0  0  0  0
    1.7097   -0.5390    1.1034 C   0  0  0  0  0  0  0  0  0  0  0  0
    2.4009    0.5875    0.3154 C   0  0  2  0  0  0  0  0  0  0  0  0
    1.6689    0.8264   -0.8930 O   0  0  0  0  0  0  0  0  0  0  0  0
    2.2538    0.0783   -1.8731 C   0  0  0  0  0  0  0  0  0  0  0  0
    1.7622   -0.1382   -2.9663 O   0  0  0  0  0  0  0  0  0  0  0  0
    3.4651   -0.3981   -1.4570 O   0  0  0  0  0  0  0  0  0  0  0  0
    3.7799    0.2701   -0.2365 C   0  0  0  0  0  0  0  0  0  0  0  0
    4.6463   -0.6434    0.6246 C   0  0  0  0  0  0  0  0  0  0  0  0
    4.5621    1.5491   -0.5749 C   0  0  0  0  0  0  0  0  0  0  0  0
   -1.3238    0.8681    0.4713 C   0  0  0  0  0  0  0  0  0  0  0  0
   -2.4908    0.7424   -0.2868 C   0  0  0  0  0  0  0  0  0  0  0  0
   -3.1252    1.9591   -0.7858 C   0  0  0  0  0  0  0  0  0  0  0  0
   -2.6006    3.1558   -0.5073 C   0  0  0  0  0  0  0  0  0  0  0  0
   -1.3857    3.3130    0.3067 C   0  0  0  0  0  0  0  0  0  0  0  0
   -0.9343    4.4248    0.5552 O   0  0  0  0  0  0  0  0  0  0  0  0
   -0.7974    2.1492    0.7725 O   0  0  0  0  0  0  0  0  0  0  0  0
   -6.1747   -0.8963   -1.0882 H   0  0  0  0  0  0  0  0  0  0  0  0
   -5.3757   -0.1639    0.3130 H   0  0  0  0  0  0  0  0  0  0  0  0
   -5.2171   -1.9250   -0.0121 H   0  0  0  0  0  0  0  0  0  0  0  0
   -3.2672   -3.6240   -0.6908 H   0  0  0  0  0  0  0  0  0  0  0  0
   -1.1502   -4.6784    0.7381 H   0  0  0  0  0  0  0  0  0  0  0  0
    2.3455   -0.8609    1.9338 H   0  0  0  0  0  0  0  0  0  0  0  0
    1.5212   -1.4152    0.4725 H   0  0  0  0  0  0  0  0  0  0  0  0
    2.3985    1.5077    0.9109 H   0  0  0  0  0  0  0  0  0  0  0  0
    5.6205   -0.8117    0.1506 H   0  0  0  0  0  0  0  0  0  0  0  0
    4.1989   -1.6371    0.7348 H   0  0  0  0  0  0  0  0  0  0  0  0
    4.8173   -0.2159    1.6176 H   0  0  0  0  0  0  0  0  0  0  0  0
    3.9905    2.2138   -1.2324 H   0  0  0  0  0  0  0  0  0  0  0  0
    5.4853    1.3070   -1.1139 H   0  0  0  0  0  0  0  0  0  0  0  0
    4.8235    2.1054    0.3312 H   0  0  0  0  0  0  0  0  0  0  0  0
   -4.0163    1.8724   -1.3986 H   0  0  0  0  0  0  0  0  0  0  0  0
   -3.0454    4.0731   -0.8732 H   0  0  0  0  0  0  0  0  0  0  0  0
  1  2  1  0
  2  3  1  0
  3  4  2  0
  4  5  1  0
  5  6  2  0
  6  7  1  0
  7  8  1  0
  8  9  2  0
  9 10  1  0
 10 11  1  0
 11 12  1  0
 12 13  1  0
 13 14  1  0
 14 15  2  0
 14 16  1  0
 16 17  1  0
 17 18  1  0
 17 19  1  0
  9 20  1  0
 20 21  2  0
 21 22  1  0
 22 23  2  0
 23 24  1  0
 24 25  2  0
 24 26  1  0
 21  3  1  0
  8  4  1  0
 17 12  1  0
 26 20  1  0
  1 27  1  0
  1 28  1  0
  1 29  1  0
  5 30  1  0
  6 31  1  0
 11 32  1  0
 11 33  1  0
 12 34  1  1
 18 35  1  0
 18 36  1  0
 18 37  1  0
 19 38  1  0
 19 39  1  0
 19 40  1  0
 22 41  1  0
 23 42  1  0
M  END
>  <Name>  (677) 
Japoangelone

>  <PubChem ID>  (677) 
100932293

>  <CDB ID>  (677) 
CDB0677

>  <Smiles>  (677) 
COC1=C2C=COC2=C(OC[C@@H]2OC(=O)OC2(C)C)C2=C1C=CC(=O)O2

>  <Chemical class>  (677) 
5,7,8-Trioxygenated Coumarins

>  <Natural source>  (677) 
Angelica japonica

>  <Molecular Formula>  (677) 
C18H16O8

>  <InChI-Key>  (677) 
AUIKCQMXBIJVEL-NSHDSACASA-N

>  <Total Molweight>  (677) 
360.317

>  <cLogP>  (677) 
1.923

>  <cLogS>  (677) 
-4.794

>  <H-Acceptors>  (677) 
8

>  <H-Donors>  (677) 
0

>  <Rotatable Bonds>  (677) 
4

>  <Polar Surface Area>  (677) 
93.43

$$$$
CDB0678
     RDKit          3D

 34 36  0  0  0  0  0  0  0  0999 V2000
    3.8724   -0.7987    0.6057 C   0  0  0  0  0  0  0  0  0  0  0  0
    2.6650   -0.3002   -0.1817 C   0  0  0  0  0  0  0  0  0  0  0  0
    3.1059    0.6888   -1.2569 C   0  0  0  0  0  0  0  0  0  0  0  0
    1.7966    0.3678    0.7511 O   0  0  0  0  0  0  0  0  0  0  0  0
    0.4585    0.1552    0.4788 C   0  0  0  0  0  0  0  0  0  0  0  0
   -0.1503   -1.1017    0.6988 C   0  0  0  0  0  0  0  0  0  0  0  0
    0.2900   -2.3714    1.1710 C   0  0  0  0  0  0  0  0  0  0  0  0
   -0.8036   -3.2005    1.1444 C   0  0  0  0  0  0  0  0  0  0  0  0
   -1.8935   -2.5311    0.6978 O   0  0  0  0  0  0  0  0  0  0  0  0
   -1.5140   -1.2439    0.4348 C   0  0  0  0  0  0  0  0  0  0  0  0
   -2.3344   -0.2024   -0.0215 C   0  0  0  0  0  0  0  0  0  0  0  0
   -1.6954    1.0421   -0.1742 C   0  0  0  0  0  0  0  0  0  0  0  0
   -0.3358    1.2466    0.0803 C   0  0  0  0  0  0  0  0  0  0  0  0
    0.2050    2.5945   -0.0745 C   0  0  0  0  0  0  0  0  0  0  0  0
   -0.5794    3.5971   -0.4785 C   0  0  0  0  0  0  0  0  0  0  0  0
   -2.0044    3.4060   -0.7846 C   0  0  0  0  0  0  0  0  0  0  0  0
   -2.6935    4.3428   -1.1701 O   0  0  0  0  0  0  0  0  0  0  0  0
   -2.5049    2.1269   -0.6104 O   0  0  0  0  0  0  0  0  0  0  0  0
   -3.6858   -0.2459   -0.3152 O   0  0  0  0  0  0  0  0  0  0  0  0
   -4.3283   -1.5055   -0.1797 C   0  0  0  0  0  0  0  0  0  0  0  0
    4.3865    0.0307    1.1043 H   0  0  0  0  0  0  0  0  0  0  0  0
    3.5571   -1.4907    1.3936 H   0  0  0  0  0  0  0  0  0  0  0  0
    4.5863   -1.3137   -0.0443 H   0  0  0  0  0  0  0  0  0  0  0  0
    2.1824   -1.1603   -0.6624 H   0  0  0  0  0  0  0  0  0  0  0  0
    2.2476    1.0246   -1.8478 H   0  0  0  0  0  0  0  0  0  0  0  0
    3.8324    0.2356   -1.9385 H   0  0  0  0  0  0  0  0  0  0  0  0
    3.5529    1.5834   -0.8097 H   0  0  0  0  0  0  0  0  0  0  0  0
    1.2849   -2.6427    1.4929 H   0  0  0  0  0  0  0  0  0  0  0  0
   -0.9645   -4.2383    1.4025 H   0  0  0  0  0  0  0  0  0  0  0  0
    1.2509    2.7693    0.1546 H   0  0  0  0  0  0  0  0  0  0  0  0
   -0.2023    4.6054   -0.5974 H   0  0  0  0  0  0  0  0  0  0  0  0
   -5.3751   -1.3765   -0.4720 H   0  0  0  0  0  0  0  0  0  0  0  0
   -4.3190   -1.8437    0.8612 H   0  0  0  0  0  0  0  0  0  0  0  0
   -3.8902   -2.2495   -0.8526 H   0  0  0  0  0  0  0  0  0  0  0  0
  1  2  1  0
  2  3  1  0
  2  4  1  0
  4  5  1  0
  5  6  2  0
  6  7  1  0
  7  8  2  0
  8  9  1  0
  9 10  1  0
 10 11  2  0
 11 12  1  0
 12 13  2  0
 13 14  1  0
 14 15  2  0
 15 16  1  0
 16 17  2  0
 16 18  1  0
 11 19  1  0
 19 20  1  0
 13  5  1  0
 10  6  1  0
 18 12  1  0
  1 21  1  0
  1 22  1  0
  1 23  1  0
  2 24  1  0
  3 25  1  0
  3 26  1  0
  3 27  1  0
  7 28  1  0
  8 29  1  0
 14 30  1  0
 15 31  1  0
 20 32  1  0
 20 33  1  0
 20 34  1  0
M  END
>  <Name>  (678) 
Tederin

>  <PubChem ID>  (678) 
181629

>  <CDB ID>  (678) 
CDB0678

>  <Smiles>  (678) 
CC(C)OC1=C2C=COC2=C(C3=C1C=CC(=O)O3)OC

>  <Chemical class>  (678) 
5,7,8-Trioxygenated Coumarins

>  <Natural source>  (678) 
Ruta pinnata

>  <Molecular Formula>  (678) 
C15H14O5

>  <InChI-Key>  (678) 
WDWMMTPOXUTHRI-UHFFFAOYSA-N

>  <Total Molweight>  (678) 
274.271

>  <cLogP>  (678) 
2.5746

>  <cLogS>  (678) 
-4.243

>  <H-Acceptors>  (678) 
5

>  <H-Donors>  (678) 
0

>  <Rotatable Bonds>  (678) 
3

>  <Polar Surface Area>  (678) 
57.9

$$$$
CDB0679
     RDKit          3D

 38 40  0  0  0  0  0  0  0  0999 V2000
    5.1688    2.0490   -0.0833 C   0  0  0  0  0  0  0  0  0  0  0  0
    4.0104    1.1731    0.3215 C   0  0  0  0  0  0  0  0  0  0  0  0
    2.7423    1.6034    0.1652 C   0  0  0  0  0  0  0  0  0  0  0  0
    1.4635    0.8905    0.4913 C   0  0  0  0  0  0  0  0  0  0  0  0
    0.6645    0.8941   -0.7013 O   0  0  0  0  0  0  0  0  0  0  0  0
   -0.5107    0.2028   -0.4904 C   0  0  0  0  0  0  0  0  0  0  0  0
   -0.5452   -1.2023   -0.6199 C   0  0  0  0  0  0  0  0  0  0  0  0
    0.4124   -2.2092   -0.9284 C   0  0  0  0  0  0  0  0  0  0  0  0
   -0.2565   -3.4073   -0.8889 C   0  0  0  0  0  0  0  0  0  0  0  0
   -1.5625   -3.2112   -0.5821 O   0  0  0  0  0  0  0  0  0  0  0  0
   -1.7566   -1.8665   -0.4249 C   0  0  0  0  0  0  0  0  0  0  0  0
   -2.9614   -1.2168   -0.1197 C   0  0  0  0  0  0  0  0  0  0  0  0
   -2.8833    0.1872   -0.0380 C   0  0  0  0  0  0  0  0  0  0  0  0
   -1.6994    0.9062   -0.2285 C   0  0  0  0  0  0  0  0  0  0  0  0
   -1.7469    2.3633   -0.1517 C   0  0  0  0  0  0  0  0  0  0  0  0
   -2.8963    2.9879    0.1183 C   0  0  0  0  0  0  0  0  0  0  0  0
   -4.1526    2.2596    0.3497 C   0  0  0  0  0  0  0  0  0  0  0  0
   -5.1869    2.8621    0.6107 O   0  0  0  0  0  0  0  0  0  0  0  0
   -4.0906    0.8794    0.2546 O   0  0  0  0  0  0  0  0  0  0  0  0
   -4.2050   -1.7825    0.0981 O   0  0  0  0  0  0  0  0  0  0  0  0
   -4.2892   -3.1968   -0.0058 C   0  0  0  0  0  0  0  0  0  0  0  0
    4.4183   -0.1600    0.8851 C   0  0  0  0  0  0  0  0  0  0  0  0
    5.8068    2.2573    0.7818 H   0  0  0  0  0  0  0  0  0  0  0  0
    5.7716    1.5496   -0.8489 H   0  0  0  0  0  0  0  0  0  0  0  0
    4.8412    3.0101   -0.4935 H   0  0  0  0  0  0  0  0  0  0  0  0
    2.5845    2.5965   -0.2552 H   0  0  0  0  0  0  0  0  0  0  0  0
    0.9462    1.4462    1.2831 H   0  0  0  0  0  0  0  0  0  0  0  0
    1.6343   -0.1322    0.8363 H   0  0  0  0  0  0  0  0  0  0  0  0
    1.4603   -2.0674   -1.1531 H   0  0  0  0  0  0  0  0  0  0  0  0
    0.0371   -4.4356   -1.0498 H   0  0  0  0  0  0  0  0  0  0  0  0
   -0.8382    2.9290   -0.3290 H   0  0  0  0  0  0  0  0  0  0  0  0
   -2.9602    4.0676    0.1765 H   0  0  0  0  0  0  0  0  0  0  0  0
   -3.6680   -3.6871    0.7504 H   0  0  0  0  0  0  0  0  0  0  0  0
   -4.0414   -3.5352   -1.0169 H   0  0  0  0  0  0  0  0  0  0  0  0
   -5.3277   -3.4820    0.1891 H   0  0  0  0  0  0  0  0  0  0  0  0
    5.0685   -0.0165    1.7547 H   0  0  0  0  0  0  0  0  0  0  0  0
    3.5767   -0.7744    1.2104 H   0  0  0  0  0  0  0  0  0  0  0  0
    4.9714   -0.7319    0.1326 H   0  0  0  0  0  0  0  0  0  0  0  0
  1  2  1  0
  2  3  2  3
  3  4  1  0
  4  5  1  0
  5  6  1  0
  6  7  2  0
  7  8  1  0
  8  9  2  0
  9 10  1  0
 10 11  1  0
 11 12  2  0
 12 13  1  0
 13 14  2  0
 14 15  1  0
 15 16  2  0
 16 17  1  0
 17 18  2  0
 17 19  1  0
 12 20  1  0
 20 21  1  0
  2 22  1  0
 14  6  1  0
 11  7  1  0
 19 13  1  0
  1 23  1  0
  1 24  1  0
  1 25  1  0
  3 26  1  0
  4 27  1  0
  4 28  1  0
  8 29  1  0
  9 30  1  0
 15 31  1  0
 16 32  1  0
 21 33  1  0
 21 34  1  0
 21 35  1  0
 22 36  1  0
 22 37  1  0
 22 38  1  0
M  END
>  <Name>  (679) 
Cnidilin

>  <PubChem ID>  (679) 
821449

>  <CDB ID>  (679) 
CDB0679

>  <Smiles>  (679) 
CC(=CCOC1=C2C=COC2=C(C3=C1C=CC(=O)O3)OC)C

>  <Chemical class>  (679) 
5,7,8-Trioxygenated Coumarins

>  <Natural source>  (679) 
Cnidium dubium

>  <Molecular Formula>  (679) 
C17H16O5

>  <InChI-Key>  (679) 
NNDOCYLWULORAM-UHFFFAOYSA-N

>  <Total Molweight>  (679) 
300.309

>  <cLogP>  (679) 
3.4783

>  <cLogS>  (679) 
-4.301

>  <H-Acceptors>  (679) 
5

>  <H-Donors>  (679) 
0

>  <Rotatable Bonds>  (679) 
4

>  <Polar Surface Area>  (679) 
57.9

$$$$
CDB0680
     RDKit          3D

 48 50  0  0  0  0  0  0  0  0999 V2000
   -5.9212   -0.6996    0.9058 C   0  0  0  0  0  0  0  0  0  0  0  0
   -5.8312    0.7601    0.5557 C   0  0  0  0  0  0  0  0  0  0  0  0
   -4.7570    1.3727    0.0187 C   0  0  0  0  0  0  0  0  0  0  0  0
   -3.4265    0.7837   -0.3457 C   0  0  0  0  0  0  0  0  0  0  0  0
   -2.4240    1.5674    0.3185 O   0  0  0  0  0  0  0  0  0  0  0  0
   -1.1707    1.0443    0.0755 C   0  0  0  0  0  0  0  0  0  0  0  0
   -0.6782   -0.0217    0.8586 C   0  0  0  0  0  0  0  0  0  0  0  0
   -1.1865   -0.7972    1.9385 C   0  0  0  0  0  0  0  0  0  0  0  0
   -0.2080   -1.7048    2.2601 C   0  0  0  0  0  0  0  0  0  0  0  0
    0.8723   -1.5412    1.4574 O   0  0  0  0  0  0  0  0  0  0  0  0
    0.6038   -0.5084    0.6023 C   0  0  0  0  0  0  0  0  0  0  0  0
    1.4517    0.0113   -0.3860 C   0  0  0  0  0  0  0  0  0  0  0  0
    0.9295    1.0962   -1.1165 C   0  0  0  0  0  0  0  0  0  0  0  0
   -0.3449    1.6292   -0.9005 C   0  0  0  0  0  0  0  0  0  0  0  0
   -0.7657    2.7779   -1.6971 C   0  0  0  0  0  0  0  0  0  0  0  0
    0.0456    3.2875   -2.6278 C   0  0  0  0  0  0  0  0  0  0  0  0
    1.3798    2.7319   -2.8990 C   0  0  0  0  0  0  0  0  0  0  0  0
    2.0920    3.2116   -3.7728 O   0  0  0  0  0  0  0  0  0  0  0  0
    1.7685    1.6555   -2.1192 O   0  0  0  0  0  0  0  0  0  0  0  0
    2.7284   -0.4036   -0.7196 O   0  0  0  0  0  0  0  0  0  0  0  0
    3.2773   -1.4807    0.0399 C   0  0  0  0  0  0  0  0  0  0  0  0
    4.6421   -1.7612   -0.5224 C   0  0  0  0  0  0  0  0  0  0  0  0
    5.8051   -1.9252    0.1396 C   0  0  0  0  0  0  0  0  0  0  0  0
    7.0859   -2.1724   -0.6149 C   0  0  0  0  0  0  0  0  0  0  0  0
    5.9671   -1.8862    1.6338 C   0  0  0  0  0  0  0  0  0  0  0  0
   -7.0832    1.5428    0.8600 C   0  0  0  0  0  0  0  0  0  0  0  0
   -6.7598   -1.1617    0.3740 H   0  0  0  0  0  0  0  0  0  0  0  0
   -6.0890   -0.8176    1.9815 H   0  0  0  0  0  0  0  0  0  0  0  0
   -5.0252   -1.2679    0.6496 H   0  0  0  0  0  0  0  0  0  0  0  0
   -4.8249    2.4403   -0.1897 H   0  0  0  0  0  0  0  0  0  0  0  0
   -3.3452   -0.2677   -0.0590 H   0  0  0  0  0  0  0  0  0  0  0  0
   -3.2957    0.8623   -1.4320 H   0  0  0  0  0  0  0  0  0  0  0  0
   -2.1502   -0.6971    2.4181 H   0  0  0  0  0  0  0  0  0  0  0  0
   -0.1281   -2.4913    2.9980 H   0  0  0  0  0  0  0  0  0  0  0  0
   -1.7405    3.2170   -1.5124 H   0  0  0  0  0  0  0  0  0  0  0  0
   -0.2400    4.1418   -3.2293 H   0  0  0  0  0  0  0  0  0  0  0  0
    3.3273   -1.1955    1.0933 H   0  0  0  0  0  0  0  0  0  0  0  0
    2.6664   -2.3808   -0.0913 H   0  0  0  0  0  0  0  0  0  0  0  0
    4.6541   -1.8234   -1.6105 H   0  0  0  0  0  0  0  0  0  0  0  0
    6.9347   -2.1856   -1.6995 H   0  0  0  0  0  0  0  0  0  0  0  0
    7.8146   -1.3864   -0.3910 H   0  0  0  0  0  0  0  0  0  0  0  0
    7.5151   -3.1378   -0.3276 H   0  0  0  0  0  0  0  0  0  0  0  0
    6.5847   -1.0296    1.9228 H   0  0  0  0  0  0  0  0  0  0  0  0
    6.4615   -2.7998    1.9816 H   0  0  0  0  0  0  0  0  0  0  0  0
    5.0205   -1.8132    2.1731 H   0  0  0  0  0  0  0  0  0  0  0  0
   -6.9866    2.6019    0.5987 H   0  0  0  0  0  0  0  0  0  0  0  0
   -7.9299    1.1376    0.2960 H   0  0  0  0  0  0  0  0  0  0  0  0
   -7.3160    1.4844    1.9283 H   0  0  0  0  0  0  0  0  0  0  0  0
  1  2  1  0
  2  3  2  3
  3  4  1  0
  4  5  1  0
  5  6  1  0
  6  7  2  0
  7  8  1  0
  8  9  2  0
  9 10  1  0
 10 11  1  0
 11 12  2  0
 12 13  1  0
 13 14  2  0
 14 15  1  0
 15 16  2  0
 16 17  1  0
 17 18  2  0
 17 19  1  0
 12 20  1  0
 20 21  1  0
 21 22  1  0
 22 23  2  3
 23 24  1  0
 23 25  1  0
  2 26  1  0
 14  6  1  0
 11  7  1  0
 19 13  1  0
  1 27  1  0
  1 28  1  0
  1 29  1  0
  3 30  1  0
  4 31  1  0
  4 32  1  0
  8 33  1  0
  9 34  1  0
 15 35  1  0
 16 36  1  0
 21 37  1  0
 21 38  1  0
 22 39  1  0
 24 40  1  0
 24 41  1  0
 24 42  1  0
 25 43  1  0
 25 44  1  0
 25 45  1  0
 26 46  1  0
 26 47  1  0
 26 48  1  0
M  END
>  <Name>  (680) 
Cnidicin

>  <PubChem ID>  (680) 
10043694

>  <CDB ID>  (680) 
CDB0680

>  <Smiles>  (680) 
CC(=CCOC1=C2C=COC2=C(C3=C1C=CC(=O)O3)OCC=C(C)C)C

>  <Chemical class>  (680) 
5,7,8-Trioxygenated Coumarins

>  <Natural source>  (680) 
Cnidium dubium

>  <Molecular Formula>  (680) 
C21H22O5

>  <InChI-Key>  (680) 
HJMDOAWWVCOEDW-UHFFFAOYSA-N

>  <Total Molweight>  (680) 
354.401

>  <cLogP>  (680) 
5.1476

>  <cLogS>  (680) 
-5.037

>  <H-Acceptors>  (680) 
5

>  <H-Donors>  (680) 
0

>  <Rotatable Bonds>  (680) 
6

>  <Polar Surface Area>  (680) 
57.9

$$$$
CDB0681
     RDKit          3D

 39 41  0  0  0  0  0  0  0  0999 V2000
   -4.9885   -1.2490   -0.4813 C   0  0  0  0  0  0  0  0  0  0  0  0
   -4.2547   -0.1703   -0.1533 C   0  0  0  0  0  0  0  0  0  0  0  0
   -4.5375    1.1649   -0.7886 C   0  0  0  0  0  0  0  0  0  0  0  0
   -3.1423   -0.1872    0.8783 C   0  0  1  0  0  0  0  0  0  0  0  0
   -3.1846   -1.4058    1.6328 O   0  0  0  0  0  0  0  0  0  0  0  0
   -1.7438   -0.0553    0.2512 C   0  0  0  0  0  0  0  0  0  0  0  0
   -0.7859   -0.0183    1.3304 O   0  0  0  0  0  0  0  0  0  0  0  0
    0.4991   -0.0404    0.8276 C   0  0  0  0  0  0  0  0  0  0  0  0
    1.1027   -1.2617    0.4569 C   0  0  0  0  0  0  0  0  0  0  0  0
    0.6924   -2.6250    0.4385 C   0  0  0  0  0  0  0  0  0  0  0  0
    1.7557   -3.3449   -0.0472 C   0  0  0  0  0  0  0  0  0  0  0  0
    2.7970   -2.5228   -0.3256 O   0  0  0  0  0  0  0  0  0  0  0  0
    2.4157   -1.2467   -0.0153 C   0  0  0  0  0  0  0  0  0  0  0  0
    3.1885   -0.0825   -0.1337 C   0  0  0  0  0  0  0  0  0  0  0  0
    4.4880    0.0366   -0.5929 O   0  0  0  0  0  0  0  0  0  0  0  0
    5.1279   -1.1600   -1.0142 C   0  0  0  0  0  0  0  0  0  0  0  0
    2.5549    1.1046    0.2822 C   0  0  0  0  0  0  0  0  0  0  0  0
    1.2448    1.1501    0.7686 C   0  0  0  0  0  0  0  0  0  0  0  0
    0.7043    2.4359    1.2001 C   0  0  0  0  0  0  0  0  0  0  0  0
    1.4444    3.5441    1.1082 C   0  0  0  0  0  0  0  0  0  0  0  0
    2.8159    3.5337    0.5776 C   0  0  0  0  0  0  0  0  0  0  0  0
    3.4619    4.5710    0.4925 O   0  0  0  0  0  0  0  0  0  0  0  0
    3.3163    2.3021    0.1904 O   0  0  0  0  0  0  0  0  0  0  0  0
   -5.7897   -1.1989   -1.2118 H   0  0  0  0  0  0  0  0  0  0  0  0
   -4.8115   -2.2161   -0.0181 H   0  0  0  0  0  0  0  0  0  0  0  0
   -5.4059    1.1284   -1.4551 H   0  0  0  0  0  0  0  0  0  0  0  0
   -3.6815    1.5006   -1.3817 H   0  0  0  0  0  0  0  0  0  0  0  0
   -4.7453    1.9154   -0.0189 H   0  0  0  0  0  0  0  0  0  0  0  0
   -3.3055    0.6199    1.6024 H   0  0  0  0  0  0  0  0  0  0  0  0
   -2.4226   -1.3646    2.2392 H   0  0  0  0  0  0  0  0  0  0  0  0
   -1.5509   -0.9185   -0.3979 H   0  0  0  0  0  0  0  0  0  0  0  0
   -1.6628    0.8677   -0.3344 H   0  0  0  0  0  0  0  0  0  0  0  0
   -0.2650   -3.0263    0.7410 H   0  0  0  0  0  0  0  0  0  0  0  0
    1.9228   -4.3952   -0.2434 H   0  0  0  0  0  0  0  0  0  0  0  0
    4.6039   -1.6125   -1.8621 H   0  0  0  0  0  0  0  0  0  0  0  0
    5.2385   -1.8632   -0.1828 H   0  0  0  0  0  0  0  0  0  0  0  0
    6.1338   -0.8954   -1.3548 H   0  0  0  0  0  0  0  0  0  0  0  0
   -0.3007    2.4754    1.6063 H   0  0  0  0  0  0  0  0  0  0  0  0
    1.0701    4.5099    1.4251 H   0  0  0  0  0  0  0  0  0  0  0  0
  1  2  2  0
  2  3  1  0
  2  4  1  0
  4  5  1  0
  4  6  1  0
  6  7  1  0
  7  8  1  0
  8  9  2  0
  9 10  1  0
 10 11  2  0
 11 12  1  0
 12 13  1  0
 13 14  2  0
 14 15  1  0
 15 16  1  0
 14 17  1  0
 17 18  2  0
 18 19  1  0
 19 20  2  0
 20 21  1  0
 21 22  2  0
 21 23  1  0
 18  8  1  0
 13  9  1  0
 23 17  1  0
  1 24  1  0
  1 25  1  0
  3 26  1  0
  3 27  1  0
  3 28  1  0
  4 29  1  1
  5 30  1  0
  6 31  1  0
  6 32  1  0
 10 33  1  0
 11 34  1  0
 16 35  1  0
 16 36  1  0
 16 37  1  0
 19 38  1  0
 20 39  1  0
M  END
>  <Name>  (681) 
Apaensin

>  <PubChem ID>  (681) 
56776189

>  <CDB ID>  (681) 
CDB0681

>  <Smiles>  (681) 
C=C(C)[C@@H](O)COC1=C2C=COC2=C(OC)C2=C1C=CC(=O)O2

>  <Chemical class>  (681) 
5,7,8-Trioxygenated Coumarins

>  <Natural source>  (681) 
Angelica apaensis

>  <Molecular Formula>  (681) 
C17H16O6

>  <InChI-Key>  (681) 
FEOYRZYUONWQSO-LBPRGKRZSA-N

>  <Total Molweight>  (681) 
316.308

>  <cLogP>  (681) 
2.5232

>  <cLogS>  (681) 
-4.069

>  <H-Acceptors>  (681) 
6

>  <H-Donors>  (681) 
1

>  <Rotatable Bonds>  (681) 
5

>  <Polar Surface Area>  (681) 
78.13

$$$$
CDB0682
     RDKit          3D

 50 54  0  0  0  0  0  0  0  0999 V2000
    5.8090   -0.5692    0.7518 C   0  0  0  0  0  0  0  0  0  0  0  0
    5.8705   -0.5527   -0.7429 C   0  0  0  0  0  0  0  0  0  0  0  0
    4.6188   -0.6577   -1.5988 C   0  0  0  0  0  0  0  0  0  0  0  0
    5.4699   -1.7884   -1.3568 O   0  0  0  0  0  0  0  0  0  0  0  0
    3.2345   -0.7914   -1.0560 C   0  0  0  0  0  0  0  0  0  0  0  0
    2.7444    0.5246   -0.7597 O   0  0  0  0  0  0  0  0  0  0  0  0
    1.4224    0.4637   -0.3672 C   0  0  0  0  0  0  0  0  0  0  0  0
    0.3906    0.4117   -1.3297 C   0  0  0  0  0  0  0  0  0  0  0  0
    0.3375    0.3909   -2.7522 C   0  0  0  0  0  0  0  0  0  0  0  0
   -0.9914    0.3328   -3.0922 C   0  0  0  0  0  0  0  0  0  0  0  0
   -1.7649    0.3222   -1.9791 O   0  0  0  0  0  0  0  0  0  0  0  0
   -0.9345    0.3754   -0.8940 C   0  0  0  0  0  0  0  0  0  0  0  0
   -1.3127    0.3996    0.4557 C   0  0  0  0  0  0  0  0  0  0  0  0
   -0.2518    0.5015    1.3753 C   0  0  0  0  0  0  0  0  0  0  0  0
    1.0938    0.5463    0.9979 C   0  0  0  0  0  0  0  0  0  0  0  0
    2.1055    0.6830    2.0411 C   0  0  0  0  0  0  0  0  0  0  0  0
    1.7478    0.7414    3.3267 C   0  0  0  0  0  0  0  0  0  0  0  0
    0.3433    0.6746    3.7567 C   0  0  0  0  0  0  0  0  0  0  0  0
    0.0489    0.7239    4.9447 O   0  0  0  0  0  0  0  0  0  0  0  0
   -0.6028    0.5601    2.7519 O   0  0  0  0  0  0  0  0  0  0  0  0
   -2.5907    0.3647    0.9833 O   0  0  0  0  0  0  0  0  0  0  0  0
   -3.6594    0.1328    0.0655 C   0  0  0  0  0  0  0  0  0  0  0  0
   -4.9336    0.0227    0.8446 C   0  0  0  0  0  0  0  0  0  0  0  0
   -6.2722   -0.2822    0.1909 C   0  0  0  0  0  0  0  0  0  0  0  0
   -5.5172   -1.2901    0.8786 O   0  0  0  0  0  0  0  0  0  0  0  0
   -6.3851   -0.5104   -1.2840 C   0  0  0  0  0  0  0  0  0  0  0  0
   -7.5274    0.1184    0.9016 C   0  0  0  0  0  0  0  0  0  0  0  0
    7.1010    0.0496   -1.3484 C   0  0  0  0  0  0  0  0  0  0  0  0
    5.0209   -1.2231    1.1360 H   0  0  0  0  0  0  0  0  0  0  0  0
    5.6299    0.4417    1.1311 H   0  0  0  0  0  0  0  0  0  0  0  0
    6.7562   -0.9256    1.1704 H   0  0  0  0  0  0  0  0  0  0  0  0
    4.6274   -0.2163   -2.5875 H   0  0  0  0  0  0  0  0  0  0  0  0
    3.2083   -1.4129   -0.1536 H   0  0  0  0  0  0  0  0  0  0  0  0
    2.6132   -1.2744   -1.8198 H   0  0  0  0  0  0  0  0  0  0  0  0
    1.1713    0.4183   -3.4394 H   0  0  0  0  0  0  0  0  0  0  0  0
   -1.5237    0.2984   -4.0329 H   0  0  0  0  0  0  0  0  0  0  0  0
    3.1490    0.7492    1.7549 H   0  0  0  0  0  0  0  0  0  0  0  0
    2.4783    0.8472    4.1194 H   0  0  0  0  0  0  0  0  0  0  0  0
   -3.7482    0.9871   -0.6146 H   0  0  0  0  0  0  0  0  0  0  0  0
   -3.4787   -0.7911   -0.4957 H   0  0  0  0  0  0  0  0  0  0  0  0
   -4.9265    0.6096    1.7544 H   0  0  0  0  0  0  0  0  0  0  0  0
   -7.2451   -1.1501   -1.5085 H   0  0  0  0  0  0  0  0  0  0  0  0
   -6.5250    0.4436   -1.8022 H   0  0  0  0  0  0  0  0  0  0  0  0
   -5.4992   -0.9972   -1.7032 H   0  0  0  0  0  0  0  0  0  0  0  0
   -7.3729    0.2160    1.9816 H   0  0  0  0  0  0  0  0  0  0  0  0
   -8.3141   -0.6262    0.7424 H   0  0  0  0  0  0  0  0  0  0  0  0
   -7.8843    1.0821    0.5244 H   0  0  0  0  0  0  0  0  0  0  0  0
    7.0954   -0.0197   -2.4415 H   0  0  0  0  0  0  0  0  0  0  0  0
    7.1756    1.1079   -1.0787 H   0  0  0  0  0  0  0  0  0  0  0  0
    7.9984   -0.4622   -0.9858 H   0  0  0  0  0  0  0  0  0  0  0  0
  1  2  1  0
  2  3  1  0
  3  4  1  0
  3  5  1  0
  5  6  1  0
  6  7  1  0
  7  8  2  0
  8  9  1  0
  9 10  2  0
 10 11  1  0
 11 12  1  0
 12 13  2  0
 13 14  1  0
 14 15  2  0
 15 16  1  0
 16 17  2  0
 17 18  1  0
 18 19  2  0
 18 20  1  0
 13 21  1  0
 21 22  1  0
 22 23  1  0
 23 24  1  0
 24 25  1  0
 24 26  1  0
 24 27  1  0
  2 28  1  0
  4  2  1  0
 15  7  1  0
 12  8  1  0
 20 14  1  0
 25 23  1  0
  1 29  1  0
  1 30  1  0
  1 31  1  0
  3 32  1  0
  5 33  1  0
  5 34  1  0
  9 35  1  0
 10 36  1  0
 16 37  1  0
 17 38  1  0
 22 39  1  0
 22 40  1  0
 23 41  1  0
 26 42  1  0
 26 43  1  0
 26 44  1  0
 27 45  1  0
 27 46  1  0
 27 47  1  0
 28 48  1  0
 28 49  1  0
 28 50  1  0
M  END
>  <Name>  (682) 
Sen-Byakangelicol

>  <PubChem ID>  (682) 
156995

>  <CDB ID>  (682) 
CDB0682

>  <Smiles>  (682) 
CC1(C(O1)COC2=C3C=COC3=C(C4=C2C=CC(=O)O4)OCC5C(O5)(C)C)C

>  <Chemical class>  (682) 
5,7,8-Trioxygenated Coumarins

>  <Natural source>  (682) 
Angelica dahurica

>  <Molecular Formula>  (682) 
C21H22O7

>  <InChI-Key>  (682) 
ZQVSNPBYAYVIGW-UHFFFAOYSA-N

>  <Total Molweight>  (682) 
386.399

>  <cLogP>  (682) 
2.286

>  <cLogS>  (682) 
-4.829

>  <H-Acceptors>  (682) 
7

>  <H-Donors>  (682) 
0

>  <Rotatable Bonds>  (682) 
6

>  <Polar Surface Area>  (682) 
82.96

$$$$
CDB0683
     RDKit          3D

 37 39  0  0  0  0  0  0  0  0999 V2000
    2.8355   -1.8786    1.4193 C   0  0  0  0  0  0  0  0  0  0  0  0
    2.4957   -1.3972    0.0043 C   0  0  0  0  0  0  0  0  0  0  0  0
    1.5520   -2.3719   -0.6568 C   0  0  0  0  0  0  0  0  0  0  0  0
    0.2627   -2.0986   -0.8740 C   0  0  0  0  0  0  0  0  0  0  0  0
   -0.2571   -0.8063   -0.4352 C   0  0  0  0  0  0  0  0  0  0  0  0
   -1.6338   -0.4988   -0.4840 C   0  0  0  0  0  0  0  0  0  0  0  0
   -2.1026    0.7829   -0.1475 C   0  0  0  0  0  0  0  0  0  0  0  0
   -1.1814    1.7304    0.2949 C   0  0  0  0  0  0  0  0  0  0  0  0
    0.1822    1.4379    0.3742 C   0  0  0  0  0  0  0  0  0  0  0  0
    0.6454    0.1641    0.0215 C   0  0  0  0  0  0  0  0  0  0  0  0
    1.9950   -0.0515    0.1134 O   0  0  0  0  0  0  0  0  0  0  0  0
    1.0479    2.3848    0.8625 O   0  0  0  0  0  0  0  0  0  0  0  0
    1.6282    3.1210   -0.2139 C   0  0  0  0  0  0  0  0  0  0  0  0
   -1.6016    3.0267    0.6700 O   0  0  0  0  0  0  0  0  0  0  0  0
   -2.9301    3.4132    0.5996 C   0  0  0  0  0  0  0  0  0  0  0  0
   -3.3116    4.5323    0.9212 O   0  0  0  0  0  0  0  0  0  0  0  0
   -3.8831    2.4081    0.1036 C   0  0  0  0  0  0  0  0  0  0  0  0
   -3.5043    1.1764   -0.2491 C   0  0  0  0  0  0  0  0  0  0  0  0
   -2.5320   -1.4474   -0.9236 O   0  0  0  0  0  0  0  0  0  0  0  0
   -2.9888   -2.2396    0.1772 C   0  0  0  0  0  0  0  0  0  0  0  0
    3.7799   -1.2955   -0.8279 C   0  0  0  0  0  0  0  0  0  0  0  0
    3.2931   -2.8740    1.4142 H   0  0  0  0  0  0  0  0  0  0  0  0
    3.5254   -1.1837    1.9123 H   0  0  0  0  0  0  0  0  0  0  0  0
    1.9375   -1.9172    2.0475 H   0  0  0  0  0  0  0  0  0  0  0  0
    1.9476   -3.3396   -0.9536 H   0  0  0  0  0  0  0  0  0  0  0  0
   -0.3985   -2.8105   -1.3550 H   0  0  0  0  0  0  0  0  0  0  0  0
    2.2798    3.8865    0.2179 H   0  0  0  0  0  0  0  0  0  0  0  0
    0.8601    3.6274   -0.8090 H   0  0  0  0  0  0  0  0  0  0  0  0
    2.2412    2.4781   -0.8544 H   0  0  0  0  0  0  0  0  0  0  0  0
   -4.9150    2.7302    0.0353 H   0  0  0  0  0  0  0  0  0  0  0  0
   -4.2264    0.4598   -0.6255 H   0  0  0  0  0  0  0  0  0  0  0  0
   -3.5028   -1.6254    0.9244 H   0  0  0  0  0  0  0  0  0  0  0  0
   -3.7057   -2.9683   -0.2126 H   0  0  0  0  0  0  0  0  0  0  0  0
   -2.1659   -2.7910    0.6442 H   0  0  0  0  0  0  0  0  0  0  0  0
    4.2837   -2.2634   -0.9270 H   0  0  0  0  0  0  0  0  0  0  0  0
    3.5645   -0.9147   -1.8337 H   0  0  0  0  0  0  0  0  0  0  0  0
    4.4834   -0.5868   -0.3751 H   0  0  0  0  0  0  0  0  0  0  0  0
  1  2  1  0
  2  3  1  0
  3  4  2  0
  4  5  1  0
  5  6  1  0
  6  7  2  0
  7  8  1  0
  8  9  2  0
  9 10  1  0
 10 11  1  0
  9 12  1  0
 12 13  1  0
  8 14  1  0
 14 15  1  0
 15 16  2  0
 15 17  1  0
 17 18  2  0
  6 19  1  0
 19 20  1  0
  2 21  1  0
 11  2  1  0
 10  5  2  0
 18  7  1  0
  1 22  1  0
  1 23  1  0
  1 24  1  0
  3 25  1  0
  4 26  1  0
 13 27  1  0
 13 28  1  0
 13 29  1  0
 17 30  1  0
 18 31  1  0
 20 32  1  0
 20 33  1  0
 20 34  1  0
 21 35  1  0
 21 36  1  0
 21 37  1  0
M  END
>  <Name>  (683) 
Racemosin (Ceylantin)

>  <PubChem ID>  (683) 
155148

>  <CDB ID>  (683) 
CDB0683

>  <Smiles>  (683) 
CC1(C=CC2=C(C3=C(C(=C2O1)OC)OC(=O)C=C3)OC)C

>  <Chemical class>  (683) 
5,7,8-Trioxygenated Coumarins

>  <Natural source>  (683) 
Atalantia racemosa, Atalantia ceylanica

>  <Molecular Formula>  (683) 
C16H16O5

>  <InChI-Key>  (683) 
QZUNAFWZEXJWGD-UHFFFAOYSA-N

>  <Total Molweight>  (683) 
288.298

>  <cLogP>  (683) 
2.3841

>  <cLogS>  (683) 
-3.665

>  <H-Acceptors>  (683) 
5

>  <H-Donors>  (683) 
0

>  <Rotatable Bonds>  (683) 
2

>  <Polar Surface Area>  (683) 
53.99

$$$$
CDB0684
     RDKit          3D

 23 24  0  0  0  0  0  0  0  0999 V2000
    3.3765   -0.9660    0.6132 C   0  0  0  0  0  0  0  0  0  0  0  0
    2.7578    0.3073    0.4643 O   0  0  0  0  0  0  0  0  0  0  0  0
    1.4035    0.3140    0.2516 C   0  0  0  0  0  0  0  0  0  0  0  0
    0.8372    1.5862    0.1109 C   0  0  0  0  0  0  0  0  0  0  0  0
   -0.5258    1.7514   -0.1096 C   0  0  0  0  0  0  0  0  0  0  0  0
   -1.3414    0.6310   -0.1919 C   0  0  0  0  0  0  0  0  0  0  0  0
   -0.8045   -0.6510   -0.0555 C   0  0  0  0  0  0  0  0  0  0  0  0
    0.5734   -0.8084    0.1671 C   0  0  0  0  0  0  0  0  0  0  0  0
   -1.6956   -1.7978   -0.1485 C   0  0  0  0  0  0  0  0  0  0  0  0
   -3.0004   -1.6027   -0.3612 C   0  0  0  0  0  0  0  0  0  0  0  0
   -3.5885   -0.2594   -0.5081 C   0  0  0  0  0  0  0  0  0  0  0  0
   -4.7915   -0.1273   -0.7022 O   0  0  0  0  0  0  0  0  0  0  0  0
   -2.7205    0.8163   -0.4158 O   0  0  0  0  0  0  0  0  0  0  0  0
   -1.0387    3.0102   -0.2413 O   0  0  0  0  0  0  0  0  0  0  0  0
    1.6200    2.7116    0.1879 O   0  0  0  0  0  0  0  0  0  0  0  0
    3.2649   -1.5669   -0.2953 H   0  0  0  0  0  0  0  0  0  0  0  0
    2.9851   -1.4943    1.4888 H   0  0  0  0  0  0  0  0  0  0  0  0
    4.4461   -0.8005    0.7742 H   0  0  0  0  0  0  0  0  0  0  0  0
    0.9744   -1.8114    0.2708 H   0  0  0  0  0  0  0  0  0  0  0  0
   -1.2903   -2.7981   -0.0442 H   0  0  0  0  0  0  0  0  0  0  0  0
   -3.6971   -2.4288   -0.4368 H   0  0  0  0  0  0  0  0  0  0  0  0
   -0.2709    3.6082   -0.1452 H   0  0  0  0  0  0  0  0  0  0  0  0
    2.5261    2.3764    0.3437 H   0  0  0  0  0  0  0  0  0  0  0  0
  1  2  1  0
  2  3  1  0
  3  4  1  0
  4  5  2  0
  5  6  1  0
  6  7  2  0
  7  8  1  0
  7  9  1  0
  9 10  2  0
 10 11  1  0
 11 12  2  0
 11 13  1  0
  5 14  1  0
  4 15  1  0
  8  3  2  0
 13  6  1  0
  1 16  1  0
  1 17  1  0
  1 18  1  0
  8 19  1  0
  9 20  1  0
 10 21  1  0
 14 22  1  0
 15 23  1  0
M  END
>  <Name>  (684) 
Fraxetin

>  <PubChem ID>  (684) 
5273569

>  <CDB ID>  (684) 
CDB0684

>  <Smiles>  (684) 
COC1=C(C(=C2C(=C1)C=CC(=O)O2)O)O

>  <Chemical class>  (684) 
6,7,8-Trioxygenated Coumarins

>  <Natural source>  (684) 
Aesculus turbinata

>  <Molecular Formula>  (684) 
C10H8O5

>  <InChI-Key>  (684) 
HAVWRBANWNTOJX-UHFFFAOYSA-N

>  <Total Molweight>  (684) 
208.169

>  <cLogP>  (684) 
0.736

>  <cLogS>  (684) 
-1.796

>  <H-Acceptors>  (684) 
5

>  <H-Donors>  (684) 
2

>  <Rotatable Bonds>  (684) 
1

>  <Polar Surface Area>  (684) 
75.99

$$$$
CDB0685
     RDKit          3D

 26 27  0  0  0  0  0  0  0  0999 V2000
    3.9680    0.3386   -1.0000 C   0  0  0  0  0  0  0  0  0  0  0  0
    3.0519   -0.7198   -0.7618 O   0  0  0  0  0  0  0  0  0  0  0  0
    1.7632   -0.3879   -0.4404 C   0  0  0  0  0  0  0  0  0  0  0  0
    0.8846   -1.4566   -0.2115 C   0  0  0  0  0  0  0  0  0  0  0  0
   -0.4664   -1.2635    0.1267 C   0  0  0  0  0  0  0  0  0  0  0  0
   -0.9264    0.0511    0.2325 C   0  0  0  0  0  0  0  0  0  0  0  0
   -0.0687    1.1375    0.0088 C   0  0  0  0  0  0  0  0  0  0  0  0
    1.2734    0.9141   -0.3270 C   0  0  0  0  0  0  0  0  0  0  0  0
   -0.5843    2.4956    0.1282 C   0  0  0  0  0  0  0  0  0  0  0  0
   -1.8647    2.6990    0.4485 C   0  0  0  0  0  0  0  0  0  0  0  0
   -2.7944    1.5874    0.6906 C   0  0  0  0  0  0  0  0  0  0  0  0
   -3.9654    1.7945    0.9834 O   0  0  0  0  0  0  0  0  0  0  0  0
   -2.2737    0.3081    0.5693 O   0  0  0  0  0  0  0  0  0  0  0  0
   -1.1531   -2.4366    0.3081 O   0  0  0  0  0  0  0  0  0  0  0  0
   -2.5299   -2.3793    0.6538 C   0  0  0  0  0  0  0  0  0  0  0  0
    1.3573   -2.7457   -0.3207 O   0  0  0  0  0  0  0  0  0  0  0  0
    4.9385   -0.1060   -1.2407 H   0  0  0  0  0  0  0  0  0  0  0  0
    3.6575    0.9439   -1.8580 H   0  0  0  0  0  0  0  0  0  0  0  0
    4.0980    0.9570   -0.1059 H   0  0  0  0  0  0  0  0  0  0  0  0
    1.9203    1.7687   -0.4960 H   0  0  0  0  0  0  0  0  0  0  0  0
    0.0837    3.3326   -0.0460 H   0  0  0  0  0  0  0  0  0  0  0  0
   -2.2806    3.6943    0.5457 H   0  0  0  0  0  0  0  0  0  0  0  0
   -3.1181   -1.9059   -0.1383 H   0  0  0  0  0  0  0  0  0  0  0  0
   -2.6752   -1.8927    1.6231 H   0  0  0  0  0  0  0  0  0  0  0  0
   -2.8878   -3.4092    0.7515 H   0  0  0  0  0  0  0  0  0  0  0  0
    0.5925   -3.3192   -0.1241 H   0  0  0  0  0  0  0  0  0  0  0  0
  1  2  1  0
  2  3  1  0
  3  4  1  0
  4  5  2  0
  5  6  1  0
  6  7  2  0
  7  8  1  0
  7  9  1  0
  9 10  2  0
 10 11  1  0
 11 12  2  0
 11 13  1  0
  5 14  1  0
 14 15  1  0
  4 16  1  0
  8  3  2  0
 13  6  1  0
  1 17  1  0
  1 18  1  0
  1 19  1  0
  8 20  1  0
  9 21  1  0
 10 22  1  0
 15 23  1  0
 15 24  1  0
 15 25  1  0
 16 26  1  0
M  END
>  <Name>  (685) 
Isofraxidin

>  <PubChem ID>  (685) 
5318565

>  <CDB ID>  (685) 
CDB0685

>  <Smiles>  (685) 
COC1=C(C(=C2C(=C1)C=CC(=O)O2)OC)O

>  <Chemical class>  (685) 
6,7,8-Trioxygenated Coumarins

>  <Natural source>  (685) 
Fraxinus excelsior

>  <Molecular Formula>  (685) 
C11H10O5

>  <InChI-Key>  (685) 
HOEVRHHMDJKUMZ-UHFFFAOYSA-N

>  <Total Molweight>  (685) 
222.195

>  <cLogP>  (685) 
1.0117

>  <cLogS>  (685) 
-2.11

>  <H-Acceptors>  (685) 
5

>  <H-Donors>  (685) 
1

>  <Rotatable Bonds>  (685) 
2

>  <Polar Surface Area>  (685) 
64.99

$$$$
CDB0686
     RDKit          3D

 44 46  0  0  0  0  0  0  0  0999 V2000
    4.6279    2.5926    1.9124 C   0  0  0  0  0  0  0  0  0  0  0  0
    3.2644    2.3660    1.5869 O   0  0  0  0  0  0  0  0  0  0  0  0
    2.9644    1.2671    0.8241 C   0  0  0  0  0  0  0  0  0  0  0  0
    1.6157    1.1190    0.4577 C   0  0  0  0  0  0  0  0  0  0  0  0
    1.1969    0.0215   -0.3021 C   0  0  0  0  0  0  0  0  0  0  0  0
    2.1476   -0.8987   -0.7413 C   0  0  0  0  0  0  0  0  0  0  0  0
    3.4907   -0.7722   -0.3911 C   0  0  0  0  0  0  0  0  0  0  0  0
    3.8959    0.3097    0.4007 C   0  0  0  0  0  0  0  0  0  0  0  0
    4.4389   -1.7715   -0.8600 C   0  0  0  0  0  0  0  0  0  0  0  0
    4.0106   -2.7798   -1.6252 C   0  0  0  0  0  0  0  0  0  0  0  0
    2.6000   -2.9279   -2.0247 C   0  0  0  0  0  0  0  0  0  0  0  0
    2.2530   -3.8583   -2.7432 O   0  0  0  0  0  0  0  0  0  0  0  0
    1.7166   -1.9708   -1.5524 O   0  0  0  0  0  0  0  0  0  0  0  0
   -0.1045   -0.1433   -0.6947 O   0  0  0  0  0  0  0  0  0  0  0  0
   -0.9877   -0.4274    0.4080 C   0  0  0  0  0  0  0  0  0  0  0  0
   -1.9434   -1.5740    0.0051 C   0  0  0  0  0  0  0  0  0  0  0  0
   -2.9795   -1.0040   -0.9561 C   0  0  0  0  0  0  0  0  0  0  0  0
   -3.8348    0.0430   -0.2283 C   0  0  0  0  0  0  0  0  0  0  0  0
   -3.0667    0.7001    0.9478 C   0  0  0  0  0  0  0  0  0  0  0  0
   -1.6612    0.8114    0.7027 O   0  0  0  0  0  0  0  0  0  0  0  0
   -3.5878    2.0977    1.3023 C   0  0  0  0  0  0  0  0  0  0  0  0
   -5.0069    2.1021    1.4087 O   0  0  0  0  0  0  0  0  0  0  0  0
   -4.2937    0.9846   -1.2063 O   0  0  0  0  0  0  0  0  0  0  0  0
   -3.8150   -2.0687   -1.4419 O   0  0  0  0  0  0  0  0  0  0  0  0
   -1.2578   -2.6903   -0.5651 O   0  0  0  0  0  0  0  0  0  0  0  0
    0.7216    2.0877    0.8405 O   0  0  0  0  0  0  0  0  0  0  0  0
    5.2346    2.7217    1.0100 H   0  0  0  0  0  0  0  0  0  0  0  0
    5.0212    1.7880    2.5423 H   0  0  0  0  0  0  0  0  0  0  0  0
    4.6850    3.5221    2.4870 H   0  0  0  0  0  0  0  0  0  0  0  0
    4.9436    0.3942    0.6699 H   0  0  0  0  0  0  0  0  0  0  0  0
    5.4838   -1.6850   -0.5831 H   0  0  0  0  0  0  0  0  0  0  0  0
    4.6845   -3.5424   -1.9959 H   0  0  0  0  0  0  0  0  0  0  0  0
   -0.4245   -0.7414    1.2975 H   0  0  0  0  0  0  0  0  0  0  0  0
   -2.4574   -1.9616    0.8934 H   0  0  0  0  0  0  0  0  0  0  0  0
   -2.4899   -0.5822   -1.8424 H   0  0  0  0  0  0  0  0  0  0  0  0
   -4.7421   -0.4293    0.1697 H   0  0  0  0  0  0  0  0  0  0  0  0
   -3.1950    0.0616    1.8325 H   0  0  0  0  0  0  0  0  0  0  0  0
   -3.2881    2.8303    0.5443 H   0  0  0  0  0  0  0  0  0  0  0  0
   -3.1558    2.4257    2.2545 H   0  0  0  0  0  0  0  0  0  0  0  0
   -5.2569    2.9767    1.7604 H   0  0  0  0  0  0  0  0  0  0  0  0
   -4.9517    1.5467   -0.7497 H   0  0  0  0  0  0  0  0  0  0  0  0
   -4.4271   -1.6484   -2.0771 H   0  0  0  0  0  0  0  0  0  0  0  0
   -1.9154   -3.1398   -1.1336 H   0  0  0  0  0  0  0  0  0  0  0  0
   -0.1541    1.8476    0.4770 H   0  0  0  0  0  0  0  0  0  0  0  0
  1  2  1  0
  2  3  1  0
  3  4  1  0
  4  5  2  0
  5  6  1  0
  6  7  2  0
  7  8  1  0
  7  9  1  0
  9 10  2  0
 10 11  1  0
 11 12  2  0
 11 13  1  0
  5 14  1  0
 14 15  1  0
 15 16  1  0
 16 17  1  0
 17 18  1  0
 18 19  1  0
 19 20  1  0
 19 21  1  0
 21 22  1  0
 18 23  1  0
 17 24  1  0
 16 25  1  0
  4 26  1  0
  8  3  2  0
 13  6  1  0
 20 15  1  0
  1 27  1  0
  1 28  1  0
  1 29  1  0
  8 30  1  0
  9 31  1  0
 10 32  1  0
 15 33  1  0
 16 34  1  0
 17 35  1  0
 18 36  1  0
 19 37  1  0
 21 38  1  0
 21 39  1  0
 22 40  1  0
 23 41  1  0
 24 42  1  0
 25 43  1  0
 26 44  1  0
M  END
>  <Name>  (686) 
Fraxin

>  <PubChem ID>  (686) 
5273568

>  <CDB ID>  (686) 
CDB0686

>  <Smiles>  (686) 
COC1=C(C(=C2C(=C1)C=CC(=O)O2)OC3C(C(C(C(O3)CO)O)O)O)O

>  <Chemical class>  (686) 
6,7,8-Trioxygenated Coumarins

>  <Natural source>  (686) 
Fraxinus excelsior, Aesculus pavia, Fraxinus angustifolia

>  <Molecular Formula>  (686) 
C16H18O10

>  <InChI-Key>  (686) 
CRSFLLTWRCYNNX-UHFFFAOYSA-N

>  <Total Molweight>  (686) 
370.309

>  <cLogP>  (686) 
-1.2533

>  <cLogS>  (686) 
-1.682

>  <H-Acceptors>  (686) 
10

>  <H-Donors>  (686) 
5

>  <Rotatable Bonds>  (686) 
4

>  <Polar Surface Area>  (686) 
155.14

$$$$
CDB0687
     RDKit          3D

 26 27  0  0  0  0  0  0  0  0999 V2000
   -2.6939   -2.3442   -0.2584 C   0  0  0  0  0  0  0  0  0  0  0  0
   -2.4921   -0.9384   -0.2203 O   0  0  0  0  0  0  0  0  0  0  0  0
   -1.1986   -0.4832   -0.2062 C   0  0  0  0  0  0  0  0  0  0  0  0
   -1.0311    0.9061   -0.3574 C   0  0  0  0  0  0  0  0  0  0  0  0
    0.2469    1.4677   -0.3669 C   0  0  0  0  0  0  0  0  0  0  0  0
    1.3549    0.6427   -0.1988 C   0  0  0  0  0  0  0  0  0  0  0  0
    1.2142   -0.7324   -0.0290 C   0  0  0  0  0  0  0  0  0  0  0  0
   -0.0684   -1.2952   -0.0324 C   0  0  0  0  0  0  0  0  0  0  0  0
    2.4093   -1.5436    0.1454 C   0  0  0  0  0  0  0  0  0  0  0  0
    3.6107   -0.9581    0.1374 C   0  0  0  0  0  0  0  0  0  0  0  0
    3.7819    0.4937   -0.0425 C   0  0  0  0  0  0  0  0  0  0  0  0
    4.8975    0.9996   -0.0438 O   0  0  0  0  0  0  0  0  0  0  0  0
    2.6285    1.2481   -0.2070 O   0  0  0  0  0  0  0  0  0  0  0  0
    0.4079    2.8157   -0.5379 O   0  0  0  0  0  0  0  0  0  0  0  0
   -2.1322    1.6987   -0.5780 O   0  0  0  0  0  0  0  0  0  0  0  0
   -2.5591    2.2923    0.6464 C   0  0  0  0  0  0  0  0  0  0  0  0
   -3.7679   -2.5254   -0.3629 H   0  0  0  0  0  0  0  0  0  0  0  0
   -2.3674   -2.8117    0.6761 H   0  0  0  0  0  0  0  0  0  0  0  0
   -2.1944   -2.7951   -1.1224 H   0  0  0  0  0  0  0  0  0  0  0  0
   -0.1682   -2.3671    0.1036 H   0  0  0  0  0  0  0  0  0  0  0  0
    2.3097   -2.6154    0.2790 H   0  0  0  0  0  0  0  0  0  0  0  0
    4.5241   -1.5270    0.2634 H   0  0  0  0  0  0  0  0  0  0  0  0
    1.3659    2.9927   -0.5639 H   0  0  0  0  0  0  0  0  0  0  0  0
   -2.7935    1.5308    1.3988 H   0  0  0  0  0  0  0  0  0  0  0  0
   -1.8110    2.9912    1.0349 H   0  0  0  0  0  0  0  0  0  0  0  0
   -3.4737    2.8573    0.4430 H   0  0  0  0  0  0  0  0  0  0  0  0
  1  2  1  0
  2  3  1  0
  3  4  1  0
  4  5  2  0
  5  6  1  0
  6  7  2  0
  7  8  1  0
  7  9  1  0
  9 10  2  0
 10 11  1  0
 11 12  2  0
 11 13  1  0
  5 14  1  0
  4 15  1  0
 15 16  1  0
  8  3  2  0
 13  6  1  0
  1 17  1  0
  1 18  1  0
  1 19  1  0
  8 20  1  0
  9 21  1  0
 10 22  1  0
 14 23  1  0
 16 24  1  0
 16 25  1  0
 16 26  1  0
M  END
>  <Name>  (687) 
Fraxidin

>  <PubChem ID>  (687) 
3083616

>  <CDB ID>  (687) 
CDB0687

>  <Smiles>  (687) 
COC1=C(C(=C2C(=C1)C=CC(=O)O2)O)OC

>  <Chemical class>  (687) 
6,7,8-Trioxygenated Coumarins

>  <Natural source>  (687) 
Fraxinus excelsior

>  <Molecular Formula>  (687) 
C11H10O5

>  <InChI-Key>  (687) 
QNFBKOHHLAWWTC-UHFFFAOYSA-N

>  <Total Molweight>  (687) 
222.195

>  <cLogP>  (687) 
1.0117

>  <cLogS>  (687) 
-2.11

>  <H-Acceptors>  (687) 
5

>  <H-Donors>  (687) 
1

>  <Rotatable Bonds>  (687) 
2

>  <Polar Surface Area>  (687) 
64.99

$$$$
CDB0688
     RDKit          3D

 36 37  0  0  0  0  0  0  0  0999 V2000
    4.7171    0.3495    1.2583 C   0  0  0  0  0  0  0  0  0  0  0  0
    4.2583   -0.2791   -0.0280 C   0  0  0  0  0  0  0  0  0  0  0  0
    2.9751   -0.5346   -0.3529 C   0  0  0  0  0  0  0  0  0  0  0  0
    1.7322   -0.2389    0.4406 C   0  0  0  0  0  0  0  0  0  0  0  0
    0.7991    0.3655   -0.4579 O   0  0  0  0  0  0  0  0  0  0  0  0
   -0.5296    0.1655   -0.1705 C   0  0  0  0  0  0  0  0  0  0  0  0
   -1.3834    0.0018   -1.2852 C   0  0  0  0  0  0  0  0  0  0  0  0
   -2.7618   -0.1818   -1.0943 C   0  0  0  0  0  0  0  0  0  0  0  0
   -3.3011   -0.1850    0.1945 C   0  0  0  0  0  0  0  0  0  0  0  0
   -4.7236   -0.3704    0.4348 C   0  0  0  0  0  0  0  0  0  0  0  0
   -5.1885   -0.3554    1.6878 C   0  0  0  0  0  0  0  0  0  0  0  0
   -4.3110   -0.1557    2.8534 C   0  0  0  0  0  0  0  0  0  0  0  0
   -4.7667   -0.1452    3.9903 O   0  0  0  0  0  0  0  0  0  0  0  0
   -2.9573    0.0177    2.5992 O   0  0  0  0  0  0  0  0  0  0  0  0
   -2.4524   -0.0006    1.2807 C   0  0  0  0  0  0  0  0  0  0  0  0
   -1.0780    0.1794    1.1159 C   0  0  0  0  0  0  0  0  0  0  0  0
   -0.3014    0.3906    2.2234 O   0  0  0  0  0  0  0  0  0  0  0  0
   -0.7708    0.0094   -2.5151 O   0  0  0  0  0  0  0  0  0  0  0  0
   -1.5986    0.0146   -3.6690 C   0  0  0  0  0  0  0  0  0  0  0  0
    5.3727   -0.6270   -0.9800 C   0  0  0  0  0  0  0  0  0  0  0  0
    5.4700   -0.2849    1.7386 H   0  0  0  0  0  0  0  0  0  0  0  0
    3.9136    0.4919    1.9841 H   0  0  0  0  0  0  0  0  0  0  0  0
    5.1676    1.3273    1.0593 H   0  0  0  0  0  0  0  0  0  0  0  0
    2.7670   -1.0069   -1.3127 H   0  0  0  0  0  0  0  0  0  0  0  0
    1.9346    0.4596    1.2549 H   0  0  0  0  0  0  0  0  0  0  0  0
    1.3504   -1.1883    0.8357 H   0  0  0  0  0  0  0  0  0  0  0  0
   -3.4270   -0.3277   -1.9389 H   0  0  0  0  0  0  0  0  0  0  0  0
   -5.3903   -0.5183   -0.4079 H   0  0  0  0  0  0  0  0  0  0  0  0
   -6.2407   -0.4894    1.9084 H   0  0  0  0  0  0  0  0  0  0  0  0
   -0.8956    0.4074    2.9971 H   0  0  0  0  0  0  0  0  0  0  0  0
   -2.2829    0.8695   -3.6642 H   0  0  0  0  0  0  0  0  0  0  0  0
   -0.9506    0.1124   -4.5453 H   0  0  0  0  0  0  0  0  0  0  0  0
   -2.1446   -0.9295   -3.7636 H   0  0  0  0  0  0  0  0  0  0  0  0
    5.0027   -1.0738   -1.9089 H   0  0  0  0  0  0  0  0  0  0  0  0
    6.0579   -1.3442   -0.5163 H   0  0  0  0  0  0  0  0  0  0  0  0
    5.9375    0.2724   -1.2464 H   0  0  0  0  0  0  0  0  0  0  0  0
  1  2  1  0
  2  3  2  3
  3  4  1  0
  4  5  1  0
  5  6  1  0
  6  7  1  0
  7  8  2  0
  8  9  1  0
  9 10  1  0
 10 11  2  0
 11 12  1  0
 12 13  2  0
 12 14  1  0
 14 15  1  0
 15 16  1  0
 16 17  1  0
  7 18  1  0
 18 19  1  0
  2 20  1  0
 16  6  2  0
 15  9  2  0
  1 21  1  0
  1 22  1  0
  1 23  1  0
  3 24  1  0
  4 25  1  0
  4 26  1  0
  8 27  1  0
 10 28  1  0
 11 29  1  0
 17 30  1  0
 19 31  1  0
 19 32  1  0
 19 33  1  0
 20 34  1  0
 20 35  1  0
 20 36  1  0
M  END
>  <Name>  (688) 
Capensin

>  <PubChem ID>  (688) 
644959

>  <CDB ID>  (688) 
CDB0688

>  <Smiles>  (688) 
CC(=CCOC1=C(C=C2C=CC(=O)OC2=C1O)OC)C

>  <Chemical class>  (688) 
6,7,8-Trioxygenated Coumarins

>  <Natural source>  (688) 
Phyllosma capensis

>  <Molecular Formula>  (688) 
C15H16O5

>  <InChI-Key>  (688) 
QJZRVRVZRIXGMR-UHFFFAOYSA-N

>  <Total Molweight>  (688) 
276.287

>  <cLogP>  (688) 
2.681

>  <cLogS>  (688) 
-2.846

>  <H-Acceptors>  (688) 
5

>  <H-Donors>  (688) 
1

>  <Rotatable Bonds>  (688) 
4

>  <Polar Surface Area>  (688) 
64.99

$$$$
CDB0689
     RDKit          3D

 62 66  0  0  0  0  0  0  0  0999 V2000
    1.1372    2.8791   -1.6692 C   0  0  0  0  0  0  0  0  0  0  0  0
    0.5897    2.2501   -0.4157 C   0  0  0  0  0  0  0  0  0  0  0  0
    1.1446    2.5052    0.6545 O   0  0  0  0  0  0  0  0  0  0  0  0
   -0.4903    1.3984   -0.5106 N   0  0  0  0  0  0  0  0  0  0  0  0
   -0.7956    0.4256    0.5593 C   0  0  0  0  0  0  0  0  0  0  0  0
   -2.1229   -0.3196    0.1298 C   0  0  0  0  0  0  0  0  0  0  0  0
   -1.6180   -1.7035   -0.3787 C   0  0  0  0  0  0  0  0  0  0  0  0
   -0.3061   -1.9413    0.3354 C   0  0  0  0  0  0  0  0  0  0  0  0
    0.1956   -0.6304    0.6981 N   0  0  0  0  0  0  0  0  0  0  0  0
    1.3376   -0.5601    1.4795 C   0  0  0  0  0  0  0  0  0  0  0  0
    1.5212    0.2830    2.3501 O   0  0  0  0  0  0  0  0  0  0  0  0
    2.2779   -1.7817    1.2820 C   0  0  0  0  0  0  0  0  0  0  0  0
    2.0474   -2.4470   -0.0076 N   0  0  0  0  0  0  0  0  0  0  0  0
    0.7693   -2.6712   -0.4743 C   0  0  0  0  0  0  0  0  0  0  0  0
    0.5434   -3.4890   -1.3577 O   0  0  0  0  0  0  0  0  0  0  0  0
    3.7539   -1.4226    1.5176 C   0  0  0  0  0  0  0  0  0  0  0  0
    4.3965   -0.6025    0.4208 C   0  0  0  0  0  0  0  0  0  0  0  0
    5.1701   -1.2203   -0.5729 C   0  0  0  0  0  0  0  0  0  0  0  0
    5.7585   -0.4628   -1.5875 C   0  0  0  0  0  0  0  0  0  0  0  0
    5.5850    0.9190   -1.6174 C   0  0  0  0  0  0  0  0  0  0  0  0
    4.8245    1.5437   -0.6320 C   0  0  0  0  0  0  0  0  0  0  0  0
    4.2319    0.7881    0.3808 C   0  0  0  0  0  0  0  0  0  0  0  0
   -2.5204    0.4714   -1.1057 C   0  0  0  0  0  0  0  0  0  0  0  0
   -3.6307    0.2701   -1.9243 C   0  0  0  0  0  0  0  0  0  0  0  0
   -3.8284    1.1045   -3.0217 C   0  0  0  0  0  0  0  0  0  0  0  0
   -2.9143    2.1203   -3.2997 C   0  0  0  0  0  0  0  0  0  0  0  0
   -1.7772    2.2892   -2.5031 C   0  0  0  0  0  0  0  0  0  0  0  0
   -1.5614    1.4361   -1.4284 C   0  0  0  0  0  0  0  0  0  0  0  0
   -3.1821   -0.3519    1.3157 C   0  0  0  0  0  0  0  0  0  0  0  0
   -4.4893   -1.1033    0.9557 C   0  0  0  0  0  0  0  0  0  0  0  0
   -3.6256    1.0858    1.7059 C   0  0  0  0  0  0  0  0  0  0  0  0
   -2.6121   -1.1140    2.5199 C   0  0  0  0  0  0  0  0  0  0  0  0
   -2.1511   -0.6036    3.6702 C   0  0  0  0  0  0  0  0  0  0  0  0
    0.6802    3.8589   -1.8241 H   0  0  0  0  0  0  0  0  0  0  0  0
    2.2150    3.0253   -1.5478 H   0  0  0  0  0  0  0  0  0  0  0  0
    0.9994    2.2315   -2.5381 H   0  0  0  0  0  0  0  0  0  0  0  0
   -0.8546    0.9780    1.5013 H   0  0  0  0  0  0  0  0  0  0  0  0
   -2.3189   -2.5212   -0.1897 H   0  0  0  0  0  0  0  0  0  0  0  0
   -1.4505   -1.7031   -1.4646 H   0  0  0  0  0  0  0  0  0  0  0  0
   -0.4619   -2.5162    1.2567 H   0  0  0  0  0  0  0  0  0  0  0  0
    1.9764   -2.5062    2.0509 H   0  0  0  0  0  0  0  0  0  0  0  0
    2.7930   -2.9399   -0.4815 H   0  0  0  0  0  0  0  0  0  0  0  0
    4.3262   -2.3533    1.6314 H   0  0  0  0  0  0  0  0  0  0  0  0
    3.8721   -0.8912    2.4707 H   0  0  0  0  0  0  0  0  0  0  0  0
    5.3268   -2.2961   -0.5632 H   0  0  0  0  0  0  0  0  0  0  0  0
    6.3562   -0.9507   -2.3529 H   0  0  0  0  0  0  0  0  0  0  0  0
    6.0455    1.5097   -2.4044 H   0  0  0  0  0  0  0  0  0  0  0  0
    4.6891    2.6222   -0.6459 H   0  0  0  0  0  0  0  0  0  0  0  0
    3.6417    1.3012    1.1403 H   0  0  0  0  0  0  0  0  0  0  0  0
   -4.3361   -0.5331   -1.7426 H   0  0  0  0  0  0  0  0  0  0  0  0
   -4.6955    0.9646   -3.6629 H   0  0  0  0  0  0  0  0  0  0  0  0
   -3.0817    2.7794   -4.1487 H   0  0  0  0  0  0  0  0  0  0  0  0
   -1.1086    3.0977   -2.7613 H   0  0  0  0  0  0  0  0  0  0  0  0
   -5.1183   -0.5300    0.2691 H   0  0  0  0  0  0  0  0  0  0  0  0
   -4.3042   -2.0841    0.5086 H   0  0  0  0  0  0  0  0  0  0  0  0
   -5.1042   -1.2727    1.8498 H   0  0  0  0  0  0  0  0  0  0  0  0
   -4.1370    1.5863    0.8761 H   0  0  0  0  0  0  0  0  0  0  0  0
   -2.7911    1.7272    2.0026 H   0  0  0  0  0  0  0  0  0  0  0  0
   -4.3321    1.0659    2.5452 H   0  0  0  0  0  0  0  0  0  0  0  0
   -2.5946   -2.2012    2.4286 H   0  0  0  0  0  0  0  0  0  0  0  0
   -2.1153    0.4621    3.8732 H   0  0  0  0  0  0  0  0  0  0  0  0
   -1.7760   -1.2558    4.4544 H   0  0  0  0  0  0  0  0  0  0  0  0
  1  2  1  0
  2  3  2  0
  2  4  1  0
  4  5  1  0
  5  6  1  0
  6  7  1  0
  7  8  1  0
  8  9  1  0
  9 10  1  0
 10 11  2  0
 10 12  1  0
 12 13  1  0
 13 14  1  0
 14 15  2  0
 12 16  1  0
 16 17  1  0
 17 18  2  0
 18 19  1  0
 19 20  2  0
 20 21  1  0
 21 22  2  0
  6 23  1  0
 23 24  2  0
 24 25  1  0
 25 26  2  0
 26 27  1  0
 27 28  2  0
  6 29  1  0
 29 30  1  0
 29 31  1  0
 29 32  1  0
 32 33  2  0
 28  4  1  0
  9  5  1  0
 14  8  1  0
 22 17  1  0
 28 23  1  0
  1 34  1  0
  1 35  1  0
  1 36  1  0
  5 37  1  0
  7 38  1  0
  7 39  1  0
  8 40  1  0
 12 41  1  0
 13 42  1  0
 16 43  1  0
 16 44  1  0
 18 45  1  0
 19 46  1  0
 20 47  1  0
 21 48  1  0
 22 49  1  0
 24 50  1  0
 25 51  1  0
 26 52  1  0
 27 53  1  0
 30 54  1  0
 30 55  1  0
 30 56  1  0
 31 57  1  0
 31 58  1  0
 31 59  1  0
 32 60  1  0
 33 61  1  0
 33 62  1  0
M  END
>  <Name>  (689) 
Puberulin

>  <PubChem ID>  (689) 
3083399

>  <CDB ID>  (689) 
CDB0689

>  <Smiles>  (689) 
CC(=O)N1C2C(CC3N2C(=O)C(NC3=O)CC4=CC=CC=C4)(C5=CC=CC=C51)C(C)(C)C=C

>  <Chemical class>  (689) 
6,7,8-Trioxygenated Coumarins

>  <Natural source>  (689) 
Pteronia ciliata, Agathosma puberula

>  <Molecular Formula>  (689) 
C27H29N3O3

>  <InChI-Key>  (689) 
UHFSGFDEMVYYRX-UHFFFAOYSA-N

>  <Total Molweight>  (689) 
443.545

>  <cLogP>  (689) 
3.7274

>  <cLogS>  (689) 
-4.802

>  <H-Acceptors>  (689) 
6

>  <H-Donors>  (689) 
1

>  <Rotatable Bonds>  (689) 
4

>  <Polar Surface Area>  (689) 
69.72

$$$$
CDB0690
     RDKit          3D

 65 66  0  0  0  0  0  0  0  0999 V2000
   -7.7075    0.5827    1.3407 C   0  0  0  0  0  0  0  0  0  0  0  0
   -6.2023    0.5225    1.3318 C   0  0  0  0  0  0  0  0  0  0  0  0
   -5.4733    1.6228    1.0599 C   0  0  0  0  0  0  0  0  0  0  0  0
   -3.9735    1.7554    1.0363 C   0  0  0  0  0  0  0  0  0  0  0  0
   -3.3962    1.9954   -0.3666 C   0  0  0  0  0  0  0  0  0  0  0  0
   -3.3862    0.7693   -1.2586 C   0  0  0  0  0  0  0  0  0  0  0  0
   -2.3846   -0.1328   -1.2911 C   0  0  0  0  0  0  0  0  0  0  0  0
   -1.1404   -0.1473   -0.4436 C   0  0  0  0  0  0  0  0  0  0  0  0
    0.1228    0.2938   -1.1974 C   0  0  0  0  0  0  0  0  0  0  0  0
    0.5822   -0.6598   -2.2831 C   0  0  0  0  0  0  0  0  0  0  0  0
    1.3309   -1.7584   -2.0547 C   0  0  0  0  0  0  0  0  0  0  0  0
    1.8198   -2.2776   -0.7319 C   0  0  0  0  0  0  0  0  0  0  0  0
    3.2515   -2.3394   -0.7645 O   0  0  0  0  0  0  0  0  0  0  0  0
    3.8182   -1.3187   -0.0418 C   0  0  0  0  0  0  0  0  0  0  0  0
    4.4506   -0.2711   -0.7263 C   0  0  0  0  0  0  0  0  0  0  0  0
    5.0647    0.7651   -0.0114 C   0  0  0  0  0  0  0  0  0  0  0  0
    5.0292    0.7689    1.3867 C   0  0  0  0  0  0  0  0  0  0  0  0
    5.6431    1.8346    2.1634 C   0  0  0  0  0  0  0  0  0  0  0  0
    5.5897    1.7928    3.4979 C   0  0  0  0  0  0  0  0  0  0  0  0
    4.9291    0.6983    4.2298 C   0  0  0  0  0  0  0  0  0  0  0  0
    4.9032    0.6935    5.4549 O   0  0  0  0  0  0  0  0  0  0  0  0
    4.3549   -0.3065    3.4669 O   0  0  0  0  0  0  0  0  0  0  0  0
    4.4002   -0.2810    2.0562 C   0  0  0  0  0  0  0  0  0  0  0  0
    3.8165   -1.3388    1.3571 C   0  0  0  0  0  0  0  0  0  0  0  0
    3.1930   -2.3475    2.0458 O   0  0  0  0  0  0  0  0  0  0  0  0
    4.0856   -3.4507    2.2065 C   0  0  0  0  0  0  0  0  0  0  0  0
    4.4938   -0.3323   -2.0956 O   0  0  0  0  0  0  0  0  0  0  0  0
    4.0885    0.8774   -2.7303 C   0  0  0  0  0  0  0  0  0  0  0  0
    0.2037   -0.2737   -3.6894 C   0  0  0  0  0  0  0  0  0  0  0  0
   -4.5668    0.6287   -2.1847 C   0  0  0  0  0  0  0  0  0  0  0  0
   -5.6382   -0.8402    1.6265 C   0  0  0  0  0  0  0  0  0  0  0  0
   -8.1188   -0.0946    0.5851 H   0  0  0  0  0  0  0  0  0  0  0  0
   -8.0852    1.5880    1.1264 H   0  0  0  0  0  0  0  0  0  0  0  0
   -8.0923    0.2857    2.3218 H   0  0  0  0  0  0  0  0  0  0  0  0
   -6.0013    2.5517    0.8446 H   0  0  0  0  0  0  0  0  0  0  0  0
   -3.7220    2.6235    1.6598 H   0  0  0  0  0  0  0  0  0  0  0  0
   -3.4761    0.9056    1.5126 H   0  0  0  0  0  0  0  0  0  0  0  0
   -2.3701    2.3700   -0.2584 H   0  0  0  0  0  0  0  0  0  0  0  0
   -3.9381    2.8100   -0.8648 H   0  0  0  0  0  0  0  0  0  0  0  0
   -2.4620   -0.9723   -1.9819 H   0  0  0  0  0  0  0  0  0  0  0  0
   -1.2609    0.4980    0.4333 H   0  0  0  0  0  0  0  0  0  0  0  0
   -1.0106   -1.1609   -0.0448 H   0  0  0  0  0  0  0  0  0  0  0  0
    0.9340    0.4260   -0.4701 H   0  0  0  0  0  0  0  0  0  0  0  0
   -0.0312    1.2930   -1.6259 H   0  0  0  0  0  0  0  0  0  0  0  0
    1.6449   -2.3666   -2.9018 H   0  0  0  0  0  0  0  0  0  0  0  0
    1.4296   -1.7074    0.1179 H   0  0  0  0  0  0  0  0  0  0  0  0
    1.4583   -3.3049   -0.6089 H   0  0  0  0  0  0  0  0  0  0  0  0
    5.5858    1.5562   -0.5422 H   0  0  0  0  0  0  0  0  0  0  0  0
    6.1376    2.6509    1.6482 H   0  0  0  0  0  0  0  0  0  0  0  0
    6.0343    2.5665    4.1121 H   0  0  0  0  0  0  0  0  0  0  0  0
    3.5732   -4.2102    2.8045 H   0  0  0  0  0  0  0  0  0  0  0  0
    4.9935   -3.1532    2.7431 H   0  0  0  0  0  0  0  0  0  0  0  0
    4.3439   -3.8987    1.2411 H   0  0  0  0  0  0  0  0  0  0  0  0
    4.9224    1.5847   -2.7746 H   0  0  0  0  0  0  0  0  0  0  0  0
    3.7989    0.6355   -3.7574 H   0  0  0  0  0  0  0  0  0  0  0  0
    3.2232    1.3325   -2.2350 H   0  0  0  0  0  0  0  0  0  0  0  0
    0.5847   -0.9846   -4.4303 H   0  0  0  0  0  0  0  0  0  0  0  0
    0.6166    0.7103   -3.9349 H   0  0  0  0  0  0  0  0  0  0  0  0
   -0.8833   -0.2323   -3.8029 H   0  0  0  0  0  0  0  0  0  0  0  0
   -4.4755   -0.2434   -2.8412 H   0  0  0  0  0  0  0  0  0  0  0  0
   -5.4961    0.5166   -1.6203 H   0  0  0  0  0  0  0  0  0  0  0  0
   -4.6530    1.5127   -2.8251 H   0  0  0  0  0  0  0  0  0  0  0  0
   -5.8812   -1.1335    2.6530 H   0  0  0  0  0  0  0  0  0  0  0  0
   -6.0714   -1.5805    0.9451 H   0  0  0  0  0  0  0  0  0  0  0  0
   -4.5542   -0.8995    1.5096 H   0  0  0  0  0  0  0  0  0  0  0  0
  1  2  1  0
  2  3  2  3
  3  4  1  0
  4  5  1  0
  5  6  1  0
  6  7  2  3
  7  8  1  0
  8  9  1  0
  9 10  1  0
 10 11  2  3
 11 12  1  0
 12 13  1  0
 13 14  1  0
 14 15  1  0
 15 16  2  0
 16 17  1  0
 17 18  1  0
 18 19  2  0
 19 20  1  0
 20 21  2  0
 20 22  1  0
 22 23  1  0
 23 24  1  0
 24 25  1  0
 25 26  1  0
 15 27  1  0
 27 28  1  0
 10 29  1  0
  6 30  1  0
  2 31  1  0
 24 14  2  0
 23 17  2  0
  1 32  1  0
  1 33  1  0
  1 34  1  0
  3 35  1  0
  4 36  1  0
  4 37  1  0
  5 38  1  0
  5 39  1  0
  7 40  1  0
  8 41  1  0
  8 42  1  0
  9 43  1  0
  9 44  1  0
 11 45  1  0
 12 46  1  0
 12 47  1  0
 16 48  1  0
 18 49  1  0
 19 50  1  0
 26 51  1  0
 26 52  1  0
 26 53  1  0
 28 54  1  0
 28 55  1  0
 28 56  1  0
 29 57  1  0
 29 58  1  0
 29 59  1  0
 30 60  1  0
 30 61  1  0
 30 62  1  0
 31 63  1  0
 31 64  1  0
 31 65  1  0
M  END
>  <Name>  (690) 
Farnochrol

>  <PubChem ID>  (690) 
6440748

>  <CDB ID>  (690) 
CDB0690

>  <Smiles>  (690) 
CC(=CCCC(=CCCC(=CCOC1=C(C=C2C=CC(=O)OC2=C1OC)OC)C)C)C

>  <Chemical class>  (690) 
6,7,8-Trioxygenated Coumarins

>  <Natural source>  (690) 
Artemisia vestita

>  <Molecular Formula>  (690) 
C26H34O5

>  <InChI-Key>  (690) 
CYGFGZXXQOQUBI-UHFFFAOYSA-N

>  <Total Molweight>  (690) 
426.551

>  <cLogP>  (690) 
7.3003

>  <cLogS>  (690) 
-5.112

>  <H-Acceptors>  (690) 
5

>  <H-Donors>  (690) 
0

>  <Rotatable Bonds>  (690) 
11

>  <Polar Surface Area>  (690) 
53.99

$$$$
CDB0691
     RDKit          3D

 66 68  0  0  0  0  0  0  0  0999 V2000
   -5.4042   -2.6889    3.9887 C   0  0  0  0  0  0  0  0  0  0  0  0
   -4.7217   -1.8063    3.1072 O   0  0  0  0  0  0  0  0  0  0  0  0
   -5.3978   -1.3630    1.9999 C   0  0  0  0  0  0  0  0  0  0  0  0
   -4.8328   -0.2785    1.2992 C   0  0  0  0  0  0  0  0  0  0  0  0
   -3.6762    0.3546    1.6881 O   0  0  0  0  0  0  0  0  0  0  0  0
   -2.5565   -0.5217    1.8428 C   0  0  0  0  0  0  0  0  0  0  0  0
   -1.3352    0.2433    1.4167 C   0  0  0  0  0  0  0  0  0  0  0  0
   -0.4469   -0.0524    0.4453 C   0  0  0  0  0  0  0  0  0  0  0  0
   -0.5371   -1.2445   -0.4690 C   0  0  0  0  0  0  0  0  0  0  0  0
    0.7283    0.8741    0.1824 C   0  0  0  0  0  0  0  0  0  0  0  0
    2.0675    0.2679    0.6169 C   0  0  0  0  0  0  0  0  0  0  0  0
    3.2025    1.2342    0.4068 C   0  0  0  0  0  0  0  0  0  0  0  0
    4.1197    1.2264   -0.5814 C   0  0  0  0  0  0  0  0  0  0  0  0
    4.1248    0.2579   -1.7342 C   0  0  0  0  0  0  0  0  0  0  0  0
    5.2081    2.2855   -0.6140 C   0  0  0  0  0  0  0  0  0  0  0  0
    6.4309    1.9615    0.2519 C   0  0  0  0  0  0  0  0  0  0  0  0
    7.1840    0.7574   -0.2186 C   0  0  2  0  0  0  0  0  0  0  0  0
    8.6078    0.8465   -0.0497 O   0  0  0  0  0  0  0  0  0  0  0  0
    8.1385    0.7511   -1.4030 C   0  0  0  0  0  0  0  0  0  0  0  0
    8.4523   -0.5580   -2.0588 C   0  0  0  0  0  0  0  0  0  0  0  0
    8.3995    1.9788   -2.2180 C   0  0  0  0  0  0  0  0  0  0  0  0
   -5.4974    0.2584    0.1872 C   0  0  0  0  0  0  0  0  0  0  0  0
   -5.0020    1.3693   -0.4479 O   0  0  0  0  0  0  0  0  0  0  0  0
   -4.1375    0.9845   -1.5155 C   0  0  0  0  0  0  0  0  0  0  0  0
   -6.7053   -0.2985   -0.2324 C   0  0  0  0  0  0  0  0  0  0  0  0
   -7.3542    0.2685   -1.3502 O   0  0  0  0  0  0  0  0  0  0  0  0
   -8.5489   -0.2420   -1.8325 C   0  0  0  0  0  0  0  0  0  0  0  0
   -9.1201    0.2243   -2.8112 O   0  0  0  0  0  0  0  0  0  0  0  0
   -9.1142   -1.3974   -1.1147 C   0  0  0  0  0  0  0  0  0  0  0  0
   -8.5155   -1.9455   -0.0532 C   0  0  0  0  0  0  0  0  0  0  0  0
   -7.2587   -1.3918    0.4279 C   0  0  0  0  0  0  0  0  0  0  0  0
   -6.6010   -1.9237    1.5437 C   0  0  0  0  0  0  0  0  0  0  0  0
   -4.7773   -2.8256    4.8752 H   0  0  0  0  0  0  0  0  0  0  0  0
   -6.3592   -2.2661    4.3181 H   0  0  0  0  0  0  0  0  0  0  0  0
   -5.5435   -3.6711    3.5260 H   0  0  0  0  0  0  0  0  0  0  0  0
   -2.6776   -1.4515    1.2792 H   0  0  0  0  0  0  0  0  0  0  0  0
   -2.4456   -0.7690    2.9045 H   0  0  0  0  0  0  0  0  0  0  0  0
   -1.1805    1.1496    2.0021 H   0  0  0  0  0  0  0  0  0  0  0  0
   -0.4206   -0.9299   -1.5118 H   0  0  0  0  0  0  0  0  0  0  0  0
    0.2525   -1.9653   -0.2359 H   0  0  0  0  0  0  0  0  0  0  0  0
   -1.4940   -1.7669   -0.4071 H   0  0  0  0  0  0  0  0  0  0  0  0
    0.7548    1.1196   -0.8875 H   0  0  0  0  0  0  0  0  0  0  0  0
    0.5801    1.8308    0.7013 H   0  0  0  0  0  0  0  0  0  0  0  0
    2.0317    0.0164    1.6849 H   0  0  0  0  0  0  0  0  0  0  0  0
    2.2525   -0.6781    0.0986 H   0  0  0  0  0  0  0  0  0  0  0  0
    3.2740    2.0066    1.1734 H   0  0  0  0  0  0  0  0  0  0  0  0
    4.9861   -0.4129   -1.6720 H   0  0  0  0  0  0  0  0  0  0  0  0
    3.2239   -0.3587   -1.7817 H   0  0  0  0  0  0  0  0  0  0  0  0
    4.1797    0.8015   -2.6835 H   0  0  0  0  0  0  0  0  0  0  0  0
    5.5150    2.4674   -1.6509 H   0  0  0  0  0  0  0  0  0  0  0  0
    4.7865    3.2383   -0.2662 H   0  0  0  0  0  0  0  0  0  0  0  0
    6.1177    1.7937    1.2899 H   0  0  0  0  0  0  0  0  0  0  0  0
    7.0853    2.8410    0.2756 H   0  0  0  0  0  0  0  0  0  0  0  0
    6.7077   -0.1691    0.0784 H   0  0  0  0  0  0  0  0  0  0  0  0
    8.2892   -1.4041   -1.3827 H   0  0  0  0  0  0  0  0  0  0  0  0
    7.8153   -0.7022   -2.9373 H   0  0  0  0  0  0  0  0  0  0  0  0
    9.4977   -0.5857   -2.3830 H   0  0  0  0  0  0  0  0  0  0  0  0
    8.3318    2.8988   -1.6302 H   0  0  0  0  0  0  0  0  0  0  0  0
    7.6784    2.0459   -3.0388 H   0  0  0  0  0  0  0  0  0  0  0  0
    9.4047    1.9435   -2.6512 H   0  0  0  0  0  0  0  0  0  0  0  0
   -3.7023    1.8945   -1.9391 H   0  0  0  0  0  0  0  0  0  0  0  0
   -4.6959    0.4752   -2.3082 H   0  0  0  0  0  0  0  0  0  0  0  0
   -3.3179    0.3491   -1.1649 H   0  0  0  0  0  0  0  0  0  0  0  0
  -10.0509   -1.7784   -1.5032 H   0  0  0  0  0  0  0  0  0  0  0  0
   -8.9536   -2.7956    0.4581 H   0  0  0  0  0  0  0  0  0  0  0  0
   -7.0466   -2.7737    2.0507 H   0  0  0  0  0  0  0  0  0  0  0  0
  1  2  1  0
  2  3  1  0
  3  4  1  0
  4  5  1  0
  5  6  1  0
  6  7  1  0
  7  8  2  3
  8  9  1  0
  8 10  1  0
 10 11  1  0
 11 12  1  0
 12 13  2  3
 13 14  1  0
 13 15  1  0
 15 16  1  0
 16 17  1  0
 17 18  1  0
 18 19  1  0
 19 20  1  0
 19 21  1  0
  4 22  2  0
 22 23  1  0
 23 24  1  0
 22 25  1  0
 25 26  1  0
 26 27  1  0
 27 28  2  0
 27 29  1  0
 29 30  2  0
 30 31  1  0
 31 32  1  0
 32  3  2  0
 19 17  1  0
 31 25  2  0
  1 33  1  0
  1 34  1  0
  1 35  1  0
  6 36  1  0
  6 37  1  0
  7 38  1  0
  9 39  1  0
  9 40  1  0
  9 41  1  0
 10 42  1  0
 10 43  1  0
 11 44  1  0
 11 45  1  0
 12 46  1  0
 14 47  1  0
 14 48  1  0
 14 49  1  0
 15 50  1  0
 15 51  1  0
 16 52  1  0
 16 53  1  0
 17 54  1  1
 20 55  1  0
 20 56  1  0
 20 57  1  0
 21 58  1  0
 21 59  1  0
 21 60  1  0
 24 61  1  0
 24 62  1  0
 24 63  1  0
 29 64  1  0
 30 65  1  0
 32 66  1  0
M  END
>  <Name>  (691) 
Epoxyfarnochrol

>  <PubChem ID>  (691) 
6440800

>  <CDB ID>  (691) 
CDB0691

>  <Smiles>  (691) 
COC1=C(OCC=C(C)CCC=C(C)CC[C@@H]2OC2(C)C)C(OC)=C2OC(=O)C=CC2=C1

>  <Chemical class>  (691) 
6,7,8-Trioxygenated Coumarins

>  <Natural source>  (691) 
Achillea ochroleuca

>  <Molecular Formula>  (691) 
C26H34O6

>  <InChI-Key>  (691) 
SWLXITARPMBYFD-NRFANRHFSA-N

>  <Total Molweight>  (691) 
442.55

>  <cLogP>  (691) 
5.8695

>  <cLogS>  (691) 
-5.008

>  <H-Acceptors>  (691) 
6

>  <H-Donors>  (691) 
0

>  <Rotatable Bonds>  (691) 
11

>  <Polar Surface Area>  (691) 
66.52

$$$$
CDB0692
     RDKit          3D

 66 67  0  0  0  0  0  0  0  0999 V2000
    2.3914   -1.6577    2.4180 C   0  0  0  0  0  0  0  0  0  0  0  0
    1.9420   -0.3390    3.0359 C   0  0  0  0  0  0  0  0  0  0  0  0
    2.2756   -0.2880    4.5234 C   0  0  0  0  0  0  0  0  0  0  0  0
    2.6031    0.8141    2.2873 C   0  0  0  0  0  0  0  0  0  0  0  0
    3.6879    1.2780    2.6397 O   0  0  0  0  0  0  0  0  0  0  0  0
    1.8522    1.3519    1.0813 C   0  0  0  0  0  0  0  0  0  0  0  0
    2.7626    2.1674    0.1657 C   0  0  0  0  0  0  0  0  0  0  0  0
    2.0343    2.6884   -1.0600 C   0  0  0  0  0  0  0  0  0  0  0  0
    2.1117    2.0213   -2.2288 C   0  0  0  0  0  0  0  0  0  0  0  0
    1.5220    2.4077   -3.5604 C   0  0  0  0  0  0  0  0  0  0  0  0
    0.2461    1.6274   -3.9092 C   0  0  0  0  0  0  0  0  0  0  0  0
   -1.0117    2.2109   -3.2952 C   0  0  0  0  0  0  0  0  0  0  0  0
   -1.5927    1.7691   -2.1616 C   0  0  0  0  0  0  0  0  0  0  0  0
   -1.1289    0.6730   -1.2489 C   0  0  0  0  0  0  0  0  0  0  0  0
   -2.2198   -0.2461   -1.1060 O   0  0  0  0  0  0  0  0  0  0  0  0
   -1.8226   -1.3641   -0.4178 C   0  0  0  0  0  0  0  0  0  0  0  0
   -1.5561   -2.5634   -1.0949 C   0  0  0  0  0  0  0  0  0  0  0  0
   -1.1170   -3.6831   -0.3716 C   0  0  0  0  0  0  0  0  0  0  0  0
   -0.9902   -3.6336    1.0184 C   0  0  0  0  0  0  0  0  0  0  0  0
   -0.5525   -4.7846    1.7916 C   0  0  0  0  0  0  0  0  0  0  0  0
   -0.4577   -4.6880    3.1212 C   0  0  0  0  0  0  0  0  0  0  0  0
   -0.7761   -3.4467    3.8477 C   0  0  0  0  0  0  0  0  0  0  0  0
   -0.6736   -3.3904    5.0671 O   0  0  0  0  0  0  0  0  0  0  0  0
   -1.1832   -2.3626    3.0848 O   0  0  0  0  0  0  0  0  0  0  0  0
   -1.2964   -2.4487    1.6809 C   0  0  0  0  0  0  0  0  0  0  0  0
   -1.7228   -1.3189    0.9806 C   0  0  0  0  0  0  0  0  0  0  0  0
   -1.9631   -0.1557    1.6677 O   0  0  0  0  0  0  0  0  0  0  0  0
   -3.3591   -0.0312    1.9431 C   0  0  0  0  0  0  0  0  0  0  0  0
   -1.6208   -2.7725   -2.4473 O   0  0  0  0  0  0  0  0  0  0  0  0
   -2.6412   -2.0665   -3.1464 C   0  0  0  0  0  0  0  0  0  0  0  0
   -1.6227    3.3558   -4.0633 C   0  0  0  0  0  0  0  0  0  0  0  0
    1.2773    3.9721   -0.8513 C   0  0  0  0  0  0  0  0  0  0  0  0
    1.9595   -2.5095    2.9513 H   0  0  0  0  0  0  0  0  0  0  0  0
    2.0851   -1.7247    1.3687 H   0  0  0  0  0  0  0  0  0  0  0  0
    3.4822   -1.7581    2.4467 H   0  0  0  0  0  0  0  0  0  0  0  0
    0.8565   -0.2306    2.9311 H   0  0  0  0  0  0  0  0  0  0  0  0
    1.7408   -1.0734    5.0677 H   0  0  0  0  0  0  0  0  0  0  0  0
    1.9887    0.6781    4.9527 H   0  0  0  0  0  0  0  0  0  0  0  0
    3.3482   -0.4235    4.7006 H   0  0  0  0  0  0  0  0  0  0  0  0
    1.0176    1.9570    1.4513 H   0  0  0  0  0  0  0  0  0  0  0  0
    1.4433    0.5007    0.5259 H   0  0  0  0  0  0  0  0  0  0  0  0
    3.2008    3.0125    0.7121 H   0  0  0  0  0  0  0  0  0  0  0  0
    3.6164    1.5472   -0.1395 H   0  0  0  0  0  0  0  0  0  0  0  0
    2.6854    1.0942   -2.2553 H   0  0  0  0  0  0  0  0  0  0  0  0
    2.2815    2.1784   -4.3196 H   0  0  0  0  0  0  0  0  0  0  0  0
    1.3604    3.4877   -3.6363 H   0  0  0  0  0  0  0  0  0  0  0  0
    0.3619    0.5684   -3.6515 H   0  0  0  0  0  0  0  0  0  0  0  0
    0.1227    1.6344   -5.0006 H   0  0  0  0  0  0  0  0  0  0  0  0
   -2.5010    2.2613   -1.8163 H   0  0  0  0  0  0  0  0  0  0  0  0
   -0.8872    1.1233   -0.2803 H   0  0  0  0  0  0  0  0  0  0  0  0
   -0.2430    0.1564   -1.6300 H   0  0  0  0  0  0  0  0  0  0  0  0
   -0.8868   -4.5985   -0.9135 H   0  0  0  0  0  0  0  0  0  0  0  0
   -0.3111   -5.7088    1.2776 H   0  0  0  0  0  0  0  0  0  0  0  0
   -0.1371   -5.5223    3.7334 H   0  0  0  0  0  0  0  0  0  0  0  0
   -3.5025    0.8769    2.5362 H   0  0  0  0  0  0  0  0  0  0  0  0
   -3.9396    0.0727    1.0203 H   0  0  0  0  0  0  0  0  0  0  0  0
   -3.7260   -0.8807    2.5300 H   0  0  0  0  0  0  0  0  0  0  0  0
   -3.5693   -1.9924   -2.5691 H   0  0  0  0  0  0  0  0  0  0  0  0
   -2.2812   -1.0818   -3.4560 H   0  0  0  0  0  0  0  0  0  0  0  0
   -2.8666   -2.6306   -4.0569 H   0  0  0  0  0  0  0  0  0  0  0  0
   -1.8934    3.0330   -5.0739 H   0  0  0  0  0  0  0  0  0  0  0  0
   -0.9153    4.1873   -4.1407 H   0  0  0  0  0  0  0  0  0  0  0  0
   -2.5304    3.7393   -3.5852 H   0  0  0  0  0  0  0  0  0  0  0  0
    0.5349    3.8495   -0.0561 H   0  0  0  0  0  0  0  0  0  0  0  0
    1.9660    4.7718   -0.5599 H   0  0  0  0  0  0  0  0  0  0  0  0
    0.7405    4.3089   -1.7407 H   0  0  0  0  0  0  0  0  0  0  0  0
  1  2  1  0
  2  3  1  0
  2  4  1  0
  4  5  2  0
  4  6  1  0
  6  7  1  0
  7  8  1  0
  8  9  2  3
  9 10  1  0
 10 11  1  0
 11 12  1  0
 12 13  2  3
 13 14  1  0
 14 15  1  0
 15 16  1  0
 16 17  1  0
 17 18  2  0
 18 19  1  0
 19 20  1  0
 20 21  2  0
 21 22  1  0
 22 23  2  0
 22 24  1  0
 24 25  1  0
 25 26  1  0
 26 27  1  0
 27 28  1  0
 17 29  1  0
 29 30  1  0
 12 31  1  0
  8 32  1  0
 26 16  2  0
 25 19  2  0
  1 33  1  0
  1 34  1  0
  1 35  1  0
  2 36  1  0
  3 37  1  0
  3 38  1  0
  3 39  1  0
  6 40  1  0
  6 41  1  0
  7 42  1  0
  7 43  1  0
  9 44  1  0
 10 45  1  0
 10 46  1  0
 11 47  1  0
 11 48  1  0
 13 49  1  0
 14 50  1  0
 14 51  1  0
 18 52  1  0
 20 53  1  0
 21 54  1  0
 28 55  1  0
 28 56  1  0
 28 57  1  0
 30 58  1  0
 30 59  1  0
 30 60  1  0
 31 61  1  0
 31 62  1  0
 31 63  1  0
 32 64  1  0
 32 65  1  0
 32 66  1  0
M  END
>  <Name>  (692) 
Oxofarnochrol

>  <PubChem ID>  (692) 
6440801

>  <CDB ID>  (692) 
CDB0692

>  <Smiles>  (692) 
CC(C)C(=O)CCC(=CCCC(=CCOC1=C(C=C2C=CC(=O)OC2=C1OC)OC)C)C

>  <Chemical class>  (692) 
6,7,8-Trioxygenated Coumarins

>  <Natural source>  (692) 
Achillea ochroleuca

>  <Molecular Formula>  (692) 
C26H34O6

>  <InChI-Key>  (692) 
JFUUVGAEFIKKQY-UHFFFAOYSA-N

>  <Total Molweight>  (692) 
442.55

>  <cLogP>  (692) 
6.1114

>  <cLogS>  (692) 
-5.028

>  <H-Acceptors>  (692) 
6

>  <H-Donors>  (692) 
0

>  <Rotatable Bonds>  (692) 
12

>  <Polar Surface Area>  (692) 
71.06

$$$$
CDB0693
     RDKit          3D

 66 69  0  0  0  0  0  0  0  0999 V2000
   -0.4261   -0.2348   -2.5188 C   0  0  0  0  0  0  0  0  0  0  0  0
   -0.6217   -0.3788   -1.0334 C   0  0  0  0  0  0  0  0  0  0  0  0
    0.3433   -0.1884   -0.1103 C   0  0  0  0  0  0  0  0  0  0  0  0
    1.7653    0.2470   -0.3158 C   0  0  0  0  0  0  0  0  0  0  0  0
    2.6045   -0.8281    0.1187 O   0  0  0  0  0  0  0  0  0  0  0  0
    3.9265   -0.4695   -0.0031 C   0  0  0  0  0  0  0  0  0  0  0  0
    4.6242   -0.7591   -1.1894 C   0  0  0  0  0  0  0  0  0  0  0  0
    5.9776   -0.4099   -1.2870 C   0  0  0  0  0  0  0  0  0  0  0  0
    6.6300    0.2092   -0.2122 C   0  0  0  0  0  0  0  0  0  0  0  0
    8.0321    0.5910   -0.2891 C   0  0  0  0  0  0  0  0  0  0  0  0
    8.6149    1.1782    0.7603 C   0  0  0  0  0  0  0  0  0  0  0  0
    7.8917    1.4595    2.0124 C   0  0  0  0  0  0  0  0  0  0  0  0
    8.4631    1.9922    2.9564 O   0  0  0  0  0  0  0  0  0  0  0  0
    6.5569    1.0894    2.0591 O   0  0  0  0  0  0  0  0  0  0  0  0
    5.9233    0.4695    0.9611 C   0  0  0  0  0  0  0  0  0  0  0  0
    4.5805    0.1181    1.0847 C   0  0  0  0  0  0  0  0  0  0  0  0
    3.9000    0.4235    2.2347 O   0  0  0  0  0  0  0  0  0  0  0  0
    3.8488   -0.7180    3.0908 C   0  0  0  0  0  0  0  0  0  0  0  0
    3.8958   -1.3572   -2.1845 O   0  0  0  0  0  0  0  0  0  0  0  0
    4.5954   -1.7934   -3.3417 C   0  0  0  0  0  0  0  0  0  0  0  0
   -2.0103   -0.8112   -0.6012 C   0  0  0  0  0  0  0  0  0  0  0  0
   -3.0432    0.3125   -0.7626 C   0  0  0  0  0  0  0  0  0  0  0  0
   -4.4166   -0.0746   -0.1968 C   0  0  0  0  0  0  0  0  0  0  0  0
   -4.6364   -0.0066    1.3544 C   0  0  0  0  0  0  0  0  0  0  0  0
   -5.9445    0.8276    1.4328 C   0  0  0  0  0  0  0  0  0  0  0  0
   -5.7473    2.3096    1.1204 C   0  0  0  0  0  0  0  0  0  0  0  0
   -5.4310    2.2831   -0.3729 C   0  0  0  0  0  0  0  0  0  0  0  0
   -5.5930    0.7952   -0.7098 C   0  0  0  0  0  0  0  0  0  0  0  0
   -6.6315    0.4070    0.2264 O   0  0  0  0  0  0  0  0  0  0  0  0
   -6.0158    0.5252   -2.1397 C   0  0  0  0  0  0  0  0  0  0  0  0
   -4.9184   -1.4266    1.8912 C   0  0  0  0  0  0  0  0  0  0  0  0
   -3.5090    0.5997    2.1976 C   0  0  0  0  0  0  0  0  0  0  0  0
    0.6231   -0.1559   -2.8115 H   0  0  0  0  0  0  0  0  0  0  0  0
   -0.8293   -1.1100   -3.0395 H   0  0  0  0  0  0  0  0  0  0  0  0
   -0.9458    0.6552   -2.8869 H   0  0  0  0  0  0  0  0  0  0  0  0
    0.0977   -0.3487    0.9390 H   0  0  0  0  0  0  0  0  0  0  0  0
    1.9774    0.5062   -1.3570 H   0  0  0  0  0  0  0  0  0  0  0  0
    1.9401    1.1391    0.2992 H   0  0  0  0  0  0  0  0  0  0  0  0
    6.5398   -0.6056   -2.1944 H   0  0  0  0  0  0  0  0  0  0  0  0
    8.5882    0.3948   -1.1993 H   0  0  0  0  0  0  0  0  0  0  0  0
    9.6559    1.4775    0.7427 H   0  0  0  0  0  0  0  0  0  0  0  0
    3.3617   -0.4149    4.0224 H   0  0  0  0  0  0  0  0  0  0  0  0
    4.8547   -1.0767    3.3364 H   0  0  0  0  0  0  0  0  0  0  0  0
    3.2556   -1.5244    2.6471 H   0  0  0  0  0  0  0  0  0  0  0  0
    5.3852   -2.5065   -3.0833 H   0  0  0  0  0  0  0  0  0  0  0  0
    4.9976   -0.9422   -3.9004 H   0  0  0  0  0  0  0  0  0  0  0  0
    3.8805   -2.3087   -3.9903 H   0  0  0  0  0  0  0  0  0  0  0  0
   -1.9897   -1.1599    0.4363 H   0  0  0  0  0  0  0  0  0  0  0  0
   -2.3148   -1.6825   -1.1951 H   0  0  0  0  0  0  0  0  0  0  0  0
   -3.1486    0.5267   -1.8330 H   0  0  0  0  0  0  0  0  0  0  0  0
   -2.6711    1.2358   -0.3070 H   0  0  0  0  0  0  0  0  0  0  0  0
   -4.6216   -1.1041   -0.5267 H   0  0  0  0  0  0  0  0  0  0  0  0
   -6.5520    0.6437    2.3232 H   0  0  0  0  0  0  0  0  0  0  0  0
   -4.9835    2.8067    1.7216 H   0  0  0  0  0  0  0  0  0  0  0  0
   -6.6894    2.8500    1.2742 H   0  0  0  0  0  0  0  0  0  0  0  0
   -4.4393    2.6787   -0.6063 H   0  0  0  0  0  0  0  0  0  0  0  0
   -6.1657    2.8978   -0.9065 H   0  0  0  0  0  0  0  0  0  0  0  0
   -5.2583    0.8555   -2.8561 H   0  0  0  0  0  0  0  0  0  0  0  0
   -6.9566    1.0377   -2.3696 H   0  0  0  0  0  0  0  0  0  0  0  0
   -6.2038   -0.5426   -2.2964 H   0  0  0  0  0  0  0  0  0  0  0  0
   -5.1616   -1.4009    2.9595 H   0  0  0  0  0  0  0  0  0  0  0  0
   -5.7625   -1.8976    1.3749 H   0  0  0  0  0  0  0  0  0  0  0  0
   -4.0450   -2.0751    1.7609 H   0  0  0  0  0  0  0  0  0  0  0  0
   -3.8446    0.7591    3.2291 H   0  0  0  0  0  0  0  0  0  0  0  0
   -2.6380   -0.0607    2.2440 H   0  0  0  0  0  0  0  0  0  0  0  0
   -3.1655    1.5648    1.8161 H   0  0  0  0  0  0  0  0  0  0  0  0
  1  2  1  0
  2  3  2  3
  3  4  1  0
  4  5  1  0
  5  6  1  0
  6  7  1  0
  7  8  2  0
  8  9  1  0
  9 10  1  0
 10 11  2  0
 11 12  1  0
 12 13  2  0
 12 14  1  0
 14 15  1  0
 15 16  1  0
 16 17  1  0
 17 18  1  0
  7 19  1  0
 19 20  1  0
  2 21  1  0
 21 22  1  0
 22 23  1  0
 23 24  1  0
 24 25  1  0
 25 26  1  0
 26 27  1  0
 27 28  1  0
 28 29  1  0
 28 30  1  0
 24 31  1  0
 24 32  1  0
 16  6  2  0
 15  9  2  0
 28 23  1  0
 29 25  1  0
  1 33  1  0
  1 34  1  0
  1 35  1  0
  3 36  1  0
  4 37  1  0
  4 38  1  0
  8 39  1  0
 10 40  1  0
 11 41  1  0
 18 42  1  0
 18 43  1  0
 18 44  1  0
 20 45  1  0
 20 46  1  0
 20 47  1  0
 21 48  1  0
 21 49  1  0
 22 50  1  0
 22 51  1  0
 23 52  1  0
 25 53  1  0
 26 54  1  0
 26 55  1  0
 27 56  1  0
 27 57  1  0
 30 58  1  0
 30 59  1  0
 30 60  1  0
 31 61  1  0
 31 62  1  0
 31 63  1  0
 32 64  1  0
 32 65  1  0
 32 66  1  0
M  END
>  <Name>  (693) 
Creticacoumarin

>  <PubChem ID>  (693) 
90473625

>  <CDB ID>  (693) 
CDB0693

>  <Smiles>  (693) 
CC(=CCOC1=C(C=C2C=CC(=O)OC2=C1OC)OC)CCC3C(C4CCC3(O4)C)(C)C

>  <Chemical class>  (693) 
6,7,8-Trioxygenated Coumarins

>  <Natural source>  (693) 
Anthemis cretica

>  <Molecular Formula>  (693) 
C26H34O6

>  <InChI-Key>  (693) 
ZJBFVSYXUNCNQB-UHFFFAOYSA-N

>  <Total Molweight>  (693) 
442.55

>  <cLogP>  (693) 
4.9586

>  <cLogS>  (693) 
-5.155

>  <H-Acceptors>  (693) 
6

>  <H-Donors>  (693) 
0

>  <Rotatable Bonds>  (693) 
8

>  <Polar Surface Area>  (693) 
63.22

$$$$
CDB0694
     RDKit          3D

 66 69  0  0  0  0  0  0  0  0999 V2000
   -0.1537    4.1327   -0.5313 C   0  0  0  0  0  0  0  0  0  0  0  0
   -0.8870    2.8341   -0.6847 C   0  0  0  0  0  0  0  0  0  0  0  0
   -1.7111    2.5742   -1.7110 C   0  0  0  0  0  0  0  0  0  0  0  0
   -2.3994    1.2489   -1.8171 C   0  0  0  0  0  0  0  0  0  0  0  0
   -2.9630    0.7789   -0.4556 C   0  0  0  0  0  0  0  0  0  0  0  0
   -3.6437   -0.6422   -0.5082 C   0  0  0  0  0  0  0  0  0  0  0  0
   -4.0638   -1.0342    0.9345 C   0  0  0  0  0  0  0  0  0  0  0  0
   -2.9119   -1.0991    1.9352 C   0  0  0  0  0  0  0  0  0  0  0  0
   -1.6926   -0.2629    1.5677 C   0  0  0  0  0  0  0  0  0  0  0  0
   -1.9808    1.0288    0.7712 C   0  0  0  0  0  0  0  0  0  0  0  0
   -0.6311    1.7555    0.3560 C   0  0  0  0  0  0  0  0  0  0  0  0
    0.5060    0.8337   -0.1542 C   0  0  0  0  0  0  0  0  0  0  0  0
    1.2000    0.2759    0.9744 O   0  0  0  0  0  0  0  0  0  0  0  0
    2.3520   -0.3506    0.5601 C   0  0  0  0  0  0  0  0  0  0  0  0
    2.3248   -1.7055    0.1835 C   0  0  0  0  0  0  0  0  0  0  0  0
    3.5161   -2.3266   -0.2138 C   0  0  0  0  0  0  0  0  0  0  0  0
    4.7205   -1.6102   -0.2252 C   0  0  0  0  0  0  0  0  0  0  0  0
    5.9706   -2.2276   -0.6422 C   0  0  0  0  0  0  0  0  0  0  0  0
    7.0965   -1.5078   -0.6359 C   0  0  0  0  0  0  0  0  0  0  0  0
    7.1309   -0.0959   -0.2172 C   0  0  0  0  0  0  0  0  0  0  0  0
    8.1853    0.5285   -0.2166 O   0  0  0  0  0  0  0  0  0  0  0  0
    5.9271    0.4696    0.1722 O   0  0  0  0  0  0  0  0  0  0  0  0
    4.7273   -0.2734    0.1706 C   0  0  0  0  0  0  0  0  0  0  0  0
    3.5569    0.3602    0.5832 C   0  0  0  0  0  0  0  0  0  0  0  0
    3.5881    1.6878    0.9243 O   0  0  0  0  0  0  0  0  0  0  0  0
    3.6368    1.8290    2.3439 C   0  0  0  0  0  0  0  0  0  0  0  0
    1.1001   -2.3177    0.2254 O   0  0  0  0  0  0  0  0  0  0  0  0
    1.0437   -3.7103   -0.0489 C   0  0  0  0  0  0  0  0  0  0  0  0
   -2.7100    2.0051    1.7529 C   0  0  0  0  0  0  0  0  0  0  0  0
   -4.7330   -2.2957    0.9749 O   0  0  0  0  0  0  0  0  0  0  0  0
   -2.7545   -1.7263   -1.1564 C   0  0  0  0  0  0  0  0  0  0  0  0
   -4.9249   -0.5641   -1.3838 C   0  0  0  0  0  0  0  0  0  0  0  0
    0.9276    3.9633   -0.5212 H   0  0  0  0  0  0  0  0  0  0  0  0
   -0.4388    4.6191    0.4071 H   0  0  0  0  0  0  0  0  0  0  0  0
   -0.3762    4.8267   -1.3485 H   0  0  0  0  0  0  0  0  0  0  0  0
   -1.8822    3.3068   -2.4949 H   0  0  0  0  0  0  0  0  0  0  0  0
   -3.2186    1.3564   -2.5366 H   0  0  0  0  0  0  0  0  0  0  0  0
   -1.6988    0.5252   -2.2453 H   0  0  0  0  0  0  0  0  0  0  0  0
   -3.8065    1.4687   -0.2851 H   0  0  0  0  0  0  0  0  0  0  0  0
   -4.7859   -0.2939    1.3035 H   0  0  0  0  0  0  0  0  0  0  0  0
   -3.2902   -0.7772    2.9146 H   0  0  0  0  0  0  0  0  0  0  0  0
   -2.5917   -2.1380    2.0904 H   0  0  0  0  0  0  0  0  0  0  0  0
   -1.0286   -0.9134    0.9972 H   0  0  0  0  0  0  0  0  0  0  0  0
   -1.1378   -0.0281    2.4858 H   0  0  0  0  0  0  0  0  0  0  0  0
   -0.2475    2.2466    1.2627 H   0  0  0  0  0  0  0  0  0  0  0  0
    1.2154    1.4165   -0.7580 H   0  0  0  0  0  0  0  0  0  0  0  0
    0.1074    0.0311   -0.7854 H   0  0  0  0  0  0  0  0  0  0  0  0
    3.5260   -3.3669   -0.5228 H   0  0  0  0  0  0  0  0  0  0  0  0
    5.9731   -3.2661   -0.9547 H   0  0  0  0  0  0  0  0  0  0  0  0
    8.0467   -1.9303   -0.9393 H   0  0  0  0  0  0  0  0  0  0  0  0
    2.7089    1.4850    2.8122 H   0  0  0  0  0  0  0  0  0  0  0  0
    4.4966    1.2982    2.7681 H   0  0  0  0  0  0  0  0  0  0  0  0
    3.7527    2.8934    2.5694 H   0  0  0  0  0  0  0  0  0  0  0  0
    0.0068   -4.0347    0.0821 H   0  0  0  0  0  0  0  0  0  0  0  0
    1.6623   -4.2783    0.6537 H   0  0  0  0  0  0  0  0  0  0  0  0
    1.3288   -3.9178   -1.0853 H   0  0  0  0  0  0  0  0  0  0  0  0
   -2.1020    2.1948    2.6452 H   0  0  0  0  0  0  0  0  0  0  0  0
   -3.6696    1.6046    2.0942 H   0  0  0  0  0  0  0  0  0  0  0  0
   -2.9127    2.9734    1.2818 H   0  0  0  0  0  0  0  0  0  0  0  0
   -5.6287   -2.1679    0.6204 H   0  0  0  0  0  0  0  0  0  0  0  0
   -1.7621   -1.7925   -0.7108 H   0  0  0  0  0  0  0  0  0  0  0  0
   -3.2145   -2.7176   -1.0738 H   0  0  0  0  0  0  0  0  0  0  0  0
   -2.6120   -1.5390   -2.2265 H   0  0  0  0  0  0  0  0  0  0  0  0
   -5.4331   -1.5328   -1.4439 H   0  0  0  0  0  0  0  0  0  0  0  0
   -4.6983   -0.2691   -2.4132 H   0  0  0  0  0  0  0  0  0  0  0  0
   -5.6389    0.1610   -0.9777 H   0  0  0  0  0  0  0  0  0  0  0  0
  1  2  1  0
  2  3  2  0
  3  4  1  0
  4  5  1  0
  5  6  1  0
  6  7  1  0
  7  8  1  0
  8  9  1  0
  9 10  1  0
 10 11  1  0
 11 12  1  0
 12 13  1  0
 13 14  1  0
 14 15  1  0
 15 16  2  0
 16 17  1  0
 17 18  1  0
 18 19  2  0
 19 20  1  0
 20 21  2  0
 20 22  1  0
 22 23  1  0
 23 24  1  0
 24 25  1  0
 25 26  1  0
 15 27  1  0
 27 28  1  0
 10 29  1  0
  7 30  1  0
  6 31  1  0
  6 32  1  0
 11  2  1  0
 10  5  1  0
 24 14  2  0
 23 17  2  0
  1 33  1  0
  1 34  1  0
  1 35  1  0
  3 36  1  0
  4 37  1  0
  4 38  1  0
  5 39  1  0
  7 40  1  0
  8 41  1  0
  8 42  1  0
  9 43  1  0
  9 44  1  0
 11 45  1  0
 12 46  1  0
 12 47  1  0
 16 48  1  0
 18 49  1  0
 19 50  1  0
 26 51  1  0
 26 52  1  0
 26 53  1  0
 28 54  1  0
 28 55  1  0
 28 56  1  0
 29 57  1  0
 29 58  1  0
 29 59  1  0
 30 60  1  0
 31 61  1  0
 31 62  1  0
 31 63  1  0
 32 64  1  0
 32 65  1  0
 32 66  1  0
M  END
>  <Name>  (694) 
Isodrimartol

>  <PubChem ID>  (694) 
159138

>  <CDB ID>  (694) 
CDB0694

>  <Smiles>  (694) 
CC1=CCC2C(C(CCC2(C1COC3=C(C=C4C=CC(=O)OC4=C3OC)OC)C)O)(C)C

>  <Chemical class>  (694) 
6,7,8-Trioxygenated Coumarins

>  <Natural source>  (694) 
Achillea ochroleuca

>  <Molecular Formula>  (694) 
C26H34O6

>  <InChI-Key>  (694) 
KGVZBKUYBZGQCZ-UHFFFAOYSA-N

>  <Total Molweight>  (694) 
442.55

>  <cLogP>  (694) 
4.2122

>  <cLogS>  (694) 
-5.007

>  <H-Acceptors>  (694) 
6

>  <H-Donors>  (694) 
1

>  <Rotatable Bonds>  (694) 
5

>  <Polar Surface Area>  (694) 
74.22

$$$$
CDB0695
     RDKit          3D

 71 74  0  0  0  0  0  0  0  0999 V2000
    0.2805   -1.4478    3.5111 C   0  0  0  0  0  0  0  0  0  0  0  0
   -0.3518   -0.9676    2.2336 C   0  0  0  0  0  0  0  0  0  0  0  0
   -1.0916   -1.7840    1.4734 C   0  0  0  0  0  0  0  0  0  0  0  0
   -1.7879   -1.3709    0.2191 C   0  0  0  0  0  0  0  0  0  0  0  0
   -1.6324    0.1051   -0.2695 C   0  0  0  0  0  0  0  0  0  0  0  0
   -2.8889    0.5494   -1.1398 C   0  0  0  0  0  0  0  0  0  0  0  0
   -4.1143    0.9164   -0.2403 C   0  0  0  0  0  0  0  0  0  0  0  0
   -3.7505    1.8133    0.9518 C   0  0  0  0  0  0  0  0  0  0  0  0
   -2.5521    1.3006    1.7622 C   0  0  0  0  0  0  0  0  0  0  0  0
   -1.2661    1.0768    0.9131 C   0  0  0  0  0  0  0  0  0  0  0  0
   -0.1149    0.4765    1.8349 C   0  0  0  0  0  0  0  0  0  0  0  0
    1.3337    0.6127    1.2769 C   0  0  0  0  0  0  0  0  0  0  0  0
    1.4561   -0.0251    0.0006 O   0  0  0  0  0  0  0  0  0  0  0  0
    2.7706   -0.0632   -0.3976 C   0  0  0  0  0  0  0  0  0  0  0  0
    3.2488    0.9122   -1.2904 C   0  0  0  0  0  0  0  0  0  0  0  0
    4.5830    0.8538   -1.7143 C   0  0  0  0  0  0  0  0  0  0  0  0
    5.4261   -0.1712   -1.2644 C   0  0  0  0  0  0  0  0  0  0  0  0
    6.8181   -0.2510   -1.6810 C   0  0  0  0  0  0  0  0  0  0  0  0
    7.5860   -1.2473   -1.2301 C   0  0  0  0  0  0  0  0  0  0  0  0
    7.0790   -2.2866   -0.3175 C   0  0  0  0  0  0  0  0  0  0  0  0
    7.8124   -3.1895    0.0677 O   0  0  0  0  0  0  0  0  0  0  0  0
    5.7513   -2.1863    0.0669 O   0  0  0  0  0  0  0  0  0  0  0  0
    4.9248   -1.1403   -0.3965 C   0  0  0  0  0  0  0  0  0  0  0  0
    3.5976   -1.1098    0.0267 C   0  0  0  0  0  0  0  0  0  0  0  0
    3.1503   -2.0578    0.9101 O   0  0  0  0  0  0  0  0  0  0  0  0
    2.4006   -3.0596    0.2230 C   0  0  0  0  0  0  0  0  0  0  0  0
    2.3490    1.8750   -1.6672 O   0  0  0  0  0  0  0  0  0  0  0  0
    2.7547    2.8033   -2.6629 C   0  0  0  0  0  0  0  0  0  0  0  0
   -0.7608    2.4627    0.4340 C   0  0  0  0  0  0  0  0  0  0  0  0
   -4.7227   -0.2875    0.2775 O   0  0  0  0  0  0  0  0  0  0  0  0
   -6.0577   -0.2431    0.5347 C   0  0  0  0  0  0  0  0  0  0  0  0
   -6.7879    0.7228    0.3668 O   0  0  0  0  0  0  0  0  0  0  0  0
   -6.5147   -1.5674    1.0647 C   0  0  0  0  0  0  0  0  0  0  0  0
   -2.5481    1.7619   -2.0456 C   0  0  0  0  0  0  0  0  0  0  0  0
   -3.2856   -0.5746   -2.1395 C   0  0  0  0  0  0  0  0  0  0  0  0
   -0.0075   -2.4775    3.7490 H   0  0  0  0  0  0  0  0  0  0  0  0
   -0.0343   -0.8177    4.3493 H   0  0  0  0  0  0  0  0  0  0  0  0
    1.3717   -1.4202    3.4443 H   0  0  0  0  0  0  0  0  0  0  0  0
   -1.2370   -2.8191    1.7751 H   0  0  0  0  0  0  0  0  0  0  0  0
   -2.8368   -1.6180    0.3924 H   0  0  0  0  0  0  0  0  0  0  0  0
   -1.4486   -2.0365   -0.5852 H   0  0  0  0  0  0  0  0  0  0  0  0
   -0.7770    0.0956   -0.9578 H   0  0  0  0  0  0  0  0  0  0  0  0
   -4.8512    1.4374   -0.8664 H   0  0  0  0  0  0  0  0  0  0  0  0
   -4.6046    1.8856    1.6363 H   0  0  0  0  0  0  0  0  0  0  0  0
   -3.5660    2.8338    0.6034 H   0  0  0  0  0  0  0  0  0  0  0  0
   -2.8494    0.3721    2.2641 H   0  0  0  0  0  0  0  0  0  0  0  0
   -2.3435    2.0203    2.5646 H   0  0  0  0  0  0  0  0  0  0  0  0
   -0.1323    1.0657    2.7643 H   0  0  0  0  0  0  0  0  0  0  0  0
    2.0449    0.1830    1.9940 H   0  0  0  0  0  0  0  0  0  0  0  0
    1.6034    1.6709    1.1786 H   0  0  0  0  0  0  0  0  0  0  0  0
    4.9865    1.6007   -2.3901 H   0  0  0  0  0  0  0  0  0  0  0  0
    7.2167    0.5012   -2.3530 H   0  0  0  0  0  0  0  0  0  0  0  0
    8.6265   -1.3417   -1.5163 H   0  0  0  0  0  0  0  0  0  0  0  0
    1.5054   -2.6463   -0.2524 H   0  0  0  0  0  0  0  0  0  0  0  0
    2.0778   -3.7997    0.9613 H   0  0  0  0  0  0  0  0  0  0  0  0
    3.0213   -3.5714   -0.5209 H   0  0  0  0  0  0  0  0  0  0  0  0
    3.0385    2.2933   -3.5894 H   0  0  0  0  0  0  0  0  0  0  0  0
    3.5658    3.4412   -2.2973 H   0  0  0  0  0  0  0  0  0  0  0  0
    1.8995    3.4483   -2.8865 H   0  0  0  0  0  0  0  0  0  0  0  0
   -1.5500    3.1424    0.1200 H   0  0  0  0  0  0  0  0  0  0  0  0
   -0.0564    2.3683   -0.3976 H   0  0  0  0  0  0  0  0  0  0  0  0
   -0.2543    2.9945    1.2490 H   0  0  0  0  0  0  0  0  0  0  0  0
   -6.3278   -2.3478    0.3227 H   0  0  0  0  0  0  0  0  0  0  0  0
   -5.9941   -1.7918    1.9991 H   0  0  0  0  0  0  0  0  0  0  0  0
   -7.5892   -1.5268    1.2648 H   0  0  0  0  0  0  0  0  0  0  0  0
   -3.2793    1.8633   -2.8574 H   0  0  0  0  0  0  0  0  0  0  0  0
   -2.5766    2.7165   -1.5230 H   0  0  0  0  0  0  0  0  0  0  0  0
   -1.5639    1.6472   -2.5125 H   0  0  0  0  0  0  0  0  0  0  0  0
   -2.4401   -0.8328   -2.7878 H   0  0  0  0  0  0  0  0  0  0  0  0
   -4.1122   -0.2523   -2.7841 H   0  0  0  0  0  0  0  0  0  0  0  0
   -3.6207   -1.4935   -1.6508 H   0  0  0  0  0  0  0  0  0  0  0  0
  1  2  1  0
  2  3  2  0
  3  4  1  0
  4  5  1  0
  5  6  1  0
  6  7  1  0
  7  8  1  0
  8  9  1  0
  9 10  1  0
 10 11  1  0
 11 12  1  0
 12 13  1  0
 13 14  1  0
 14 15  1  0
 15 16  2  0
 16 17  1  0
 17 18  1  0
 18 19  2  0
 19 20  1  0
 20 21  2  0
 20 22  1  0
 22 23  1  0
 23 24  1  0
 24 25  1  0
 25 26  1  0
 15 27  1  0
 27 28  1  0
 10 29  1  0
  7 30  1  0
 30 31  1  0
 31 32  2  0
 31 33  1  0
  6 34  1  0
  6 35  1  0
 11  2  1  0
 10  5  1  0
 24 14  2  0
 23 17  2  0
  1 36  1  0
  1 37  1  0
  1 38  1  0
  3 39  1  0
  4 40  1  0
  4 41  1  0
  5 42  1  0
  7 43  1  0
  8 44  1  0
  8 45  1  0
  9 46  1  0
  9 47  1  0
 11 48  1  0
 12 49  1  0
 12 50  1  0
 16 51  1  0
 18 52  1  0
 19 53  1  0
 26 54  1  0
 26 55  1  0
 26 56  1  0
 28 57  1  0
 28 58  1  0
 28 59  1  0
 29 60  1  0
 29 61  1  0
 29 62  1  0
 33 63  1  0
 33 64  1  0
 33 65  1  0
 34 66  1  0
 34 67  1  0
 34 68  1  0
 35 69  1  0
 35 70  1  0
 35 71  1  0
M  END
>  <Name>  (695) 
Acetylisodrimartol A

>  <PubChem ID>  (695) 
159150

>  <CDB ID>  (695) 
CDB0695

>  <Smiles>  (695) 
CC1=CCC2C(C(CCC2(C1COC3=C(C=C4C=CC(=O)OC4=C3OC)OC)C)OC(=O)C)(C)C

>  <Chemical class>  (695) 
6,7,8-Trioxygenated Coumarins

>  <Natural source>  (695) 
Achillea ochroleuca

>  <Molecular Formula>  (695) 
C28H36O7

>  <InChI-Key>  (695) 
YMIXTMQQHRBULF-UHFFFAOYSA-N

>  <Total Molweight>  (695) 
484.587

>  <cLogP>  (695) 
4.6968

>  <cLogS>  (695) 
-5.417

>  <H-Acceptors>  (695) 
7

>  <H-Donors>  (695) 
0

>  <Rotatable Bonds>  (695) 
7

>  <Polar Surface Area>  (695) 
80.29

$$$$
CDB0696
     RDKit          3D

 66 69  0  0  0  0  0  0  0  0999 V2000
   -4.4324    1.0066    2.0446 C   0  0  0  0  0  0  0  0  0  0  0  0
   -3.6225   -0.0711    1.2842 C   0  0  0  0  0  0  0  0  0  0  0  0
   -2.3753    0.5313    0.5047 C   0  0  0  0  0  0  0  0  0  0  0  0
   -2.0817    2.0312    0.7297 C   0  0  0  0  0  0  0  0  0  0  0  0
   -0.7112    2.4388    0.1730 C   0  0  0  0  0  0  0  0  0  0  0  0
   -0.4957    1.9737   -1.2439 C   0  0  0  0  0  0  0  0  0  0  0  0
   -0.0922    2.8163   -2.2093 C   0  0  0  0  0  0  0  0  0  0  0  0
   -0.7957    0.4986   -1.5275 C   0  0  0  0  0  0  0  0  0  0  0  0
   -2.2563    0.1564   -1.0105 C   0  0  0  0  0  0  0  0  0  0  0  0
   -2.5560   -1.3511   -1.1284 C   0  0  0  0  0  0  0  0  0  0  0  0
   -3.9726   -1.7481   -0.7187 C   0  0  0  0  0  0  0  0  0  0  0  0
   -4.5978   -0.9232    0.4134 C   0  0  0  0  0  0  0  0  0  0  0  0
   -5.6347   -0.0979   -0.1270 O   0  0  0  0  0  0  0  0  0  0  0  0
   -3.2315    0.9484   -1.9266 C   0  0  0  0  0  0  0  0  0  0  0  0
    0.3370   -0.4013   -0.9685 C   0  0  0  0  0  0  0  0  0  0  0  0
    1.5478   -0.1558   -1.7015 O   0  0  0  0  0  0  0  0  0  0  0  0
    2.6976   -0.2560   -0.9496 C   0  0  0  0  0  0  0  0  0  0  0  0
    3.6078    0.8174   -1.0576 C   0  0  0  0  0  0  0  0  0  0  0  0
    4.8166    0.7751   -0.3537 C   0  0  0  0  0  0  0  0  0  0  0  0
    5.1367   -0.3358    0.4316 C   0  0  0  0  0  0  0  0  0  0  0  0
    6.4009   -0.4105    1.1502 C   0  0  0  0  0  0  0  0  0  0  0  0
    6.6963   -1.5004    1.8639 C   0  0  0  0  0  0  0  0  0  0  0  0
    5.7821   -2.6489    1.9568 C   0  0  0  0  0  0  0  0  0  0  0  0
    6.0731   -3.6318    2.6275 O   0  0  0  0  0  0  0  0  0  0  0  0
    4.5881   -2.5500    1.2596 O   0  0  0  0  0  0  0  0  0  0  0  0
    4.2385   -1.4014    0.5127 C   0  0  0  0  0  0  0  0  0  0  0  0
    3.0092   -1.3761   -0.1587 C   0  0  0  0  0  0  0  0  0  0  0  0
    2.1424   -2.4392   -0.1615 O   0  0  0  0  0  0  0  0  0  0  0  0
    1.7818   -2.9049    1.1379 C   0  0  0  0  0  0  0  0  0  0  0  0
    3.2202    1.8546   -1.8680 O   0  0  0  0  0  0  0  0  0  0  0  0
    4.0877    2.9717   -1.9859 C   0  0  0  0  0  0  0  0  0  0  0  0
   -3.0567   -1.0288    2.3751 C   0  0  0  0  0  0  0  0  0  0  0  0
   -3.8413    1.4806    2.8352 H   0  0  0  0  0  0  0  0  0  0  0  0
   -5.3084    0.5639    2.5344 H   0  0  0  0  0  0  0  0  0  0  0  0
   -4.7941    1.7914    1.3721 H   0  0  0  0  0  0  0  0  0  0  0  0
   -1.5117    0.0387    0.9746 H   0  0  0  0  0  0  0  0  0  0  0  0
   -2.8646    2.6499    0.2768 H   0  0  0  0  0  0  0  0  0  0  0  0
   -2.0723    2.2602    1.8010 H   0  0  0  0  0  0  0  0  0  0  0  0
   -0.6095    3.5280    0.2525 H   0  0  0  0  0  0  0  0  0  0  0  0
    0.0765    2.0116    0.8060 H   0  0  0  0  0  0  0  0  0  0  0  0
    0.1130    3.8618   -2.0052 H   0  0  0  0  0  0  0  0  0  0  0  0
    0.0668    2.4726   -3.2271 H   0  0  0  0  0  0  0  0  0  0  0  0
   -0.7877    0.3502   -2.6180 H   0  0  0  0  0  0  0  0  0  0  0  0
   -2.3670   -1.7020   -2.1508 H   0  0  0  0  0  0  0  0  0  0  0  0
   -1.8713   -1.9161   -0.4843 H   0  0  0  0  0  0  0  0  0  0  0  0
   -3.9408   -2.8016   -0.4112 H   0  0  0  0  0  0  0  0  0  0  0  0
   -4.6164   -1.7189   -1.6069 H   0  0  0  0  0  0  0  0  0  0  0  0
   -5.1359   -1.6202    1.0695 H   0  0  0  0  0  0  0  0  0  0  0  0
   -6.2803   -0.6791   -0.5642 H   0  0  0  0  0  0  0  0  0  0  0  0
   -3.0359    2.0247   -1.9260 H   0  0  0  0  0  0  0  0  0  0  0  0
   -3.1365    0.6080   -2.9650 H   0  0  0  0  0  0  0  0  0  0  0  0
   -4.2774    0.8377   -1.6582 H   0  0  0  0  0  0  0  0  0  0  0  0
    0.4769   -0.2322    0.1054 H   0  0  0  0  0  0  0  0  0  0  0  0
    0.0852   -1.4512   -1.1357 H   0  0  0  0  0  0  0  0  0  0  0  0
    5.5279    1.5918   -0.4179 H   0  0  0  0  0  0  0  0  0  0  0  0
    7.0931    0.4229    1.0943 H   0  0  0  0  0  0  0  0  0  0  0  0
    7.6273   -1.5927    2.4098 H   0  0  0  0  0  0  0  0  0  0  0  0
    1.8306   -2.1188    1.9002 H   0  0  0  0  0  0  0  0  0  0  0  0
    0.7459   -3.2549    1.0882 H   0  0  0  0  0  0  0  0  0  0  0  0
    2.4059   -3.7579    1.4187 H   0  0  0  0  0  0  0  0  0  0  0  0
    5.0445    2.6828   -2.4329 H   0  0  0  0  0  0  0  0  0  0  0  0
    4.2343    3.4620   -1.0180 H   0  0  0  0  0  0  0  0  0  0  0  0
    3.6129    3.6950   -2.6559 H   0  0  0  0  0  0  0  0  0  0  0  0
   -2.5091   -1.8664    1.9292 H   0  0  0  0  0  0  0  0  0  0  0  0
   -2.3728   -0.4999    3.0494 H   0  0  0  0  0  0  0  0  0  0  0  0
   -3.8592   -1.4497    2.9922 H   0  0  0  0  0  0  0  0  0  0  0  0
  1  2  1  0
  2  3  1  0
  3  4  1  0
  4  5  1  0
  5  6  1  0
  6  7  2  0
  6  8  1  0
  8  9  1  0
  9 10  1  0
 10 11  1  0
 11 12  1  0
 12 13  1  0
  9 14  1  0
  8 15  1  0
 15 16  1  0
 16 17  1  0
 17 18  1  0
 18 19  2  0
 19 20  1  0
 20 21  1  0
 21 22  2  0
 22 23  1  0
 23 24  2  0
 23 25  1  0
 25 26  1  0
 26 27  1  0
 27 28  1  0
 28 29  1  0
 18 30  1  0
 30 31  1  0
  2 32  1  0
 12  2  1  0
  9  3  1  0
 27 17  2  0
 26 20  2  0
  1 33  1  0
  1 34  1  0
  1 35  1  0
  3 36  1  0
  4 37  1  0
  4 38  1  0
  5 39  1  0
  5 40  1  0
  7 41  1  0
  7 42  1  0
  8 43  1  0
 10 44  1  0
 10 45  1  0
 11 46  1  0
 11 47  1  0
 12 48  1  0
 13 49  1  0
 14 50  1  0
 14 51  1  0
 14 52  1  0
 15 53  1  0
 15 54  1  0
 19 55  1  0
 21 56  1  0
 22 57  1  0
 29 58  1  0
 29 59  1  0
 29 60  1  0
 31 61  1  0
 31 62  1  0
 31 63  1  0
 32 64  1  0
 32 65  1  0
 32 66  1  0
M  END
>  <Name>  (696) 
Pectachol

>  <PubChem ID>  (696) 
78178168

>  <CDB ID>  (696) 
CDB0696

>  <Smiles>  (696) 
CC1(C2CCC(=C)C(C2(CCC1O)C)COC3=C(C=C4C=CC(=O)OC4=C3OC)OC)C

>  <Chemical class>  (696) 
6,7,8-Trioxygenated Coumarins

>  <Natural source>  (696) 
Tanacetum heterotumum

>  <Molecular Formula>  (696) 
C26H34O6

>  <InChI-Key>  (696) 
QISGCNZPAGFKFT-UHFFFAOYSA-N

>  <Total Molweight>  (696) 
442.55

>  <cLogP>  (696) 
4.2905

>  <cLogS>  (696) 
-5.174

>  <H-Acceptors>  (696) 
6

>  <H-Donors>  (696) 
1

>  <Rotatable Bonds>  (696) 
5

>  <Polar Surface Area>  (696) 
74.22

$$$$
CDB0697
     RDKit          3D

 71 74  0  0  0  0  0  0  0  0999 V2000
    0.2805   -1.4478    3.5111 C   0  0  0  0  0  0  0  0  0  0  0  0
   -0.3518   -0.9676    2.2336 C   0  0  0  0  0  0  0  0  0  0  0  0
   -1.0916   -1.7840    1.4734 C   0  0  0  0  0  0  0  0  0  0  0  0
   -1.7879   -1.3709    0.2191 C   0  0  0  0  0  0  0  0  0  0  0  0
   -1.6324    0.1051   -0.2695 C   0  0  0  0  0  0  0  0  0  0  0  0
   -2.8889    0.5494   -1.1398 C   0  0  0  0  0  0  0  0  0  0  0  0
   -4.1143    0.9164   -0.2403 C   0  0  0  0  0  0  0  0  0  0  0  0
   -3.7505    1.8133    0.9518 C   0  0  0  0  0  0  0  0  0  0  0  0
   -2.5521    1.3006    1.7622 C   0  0  0  0  0  0  0  0  0  0  0  0
   -1.2661    1.0768    0.9131 C   0  0  0  0  0  0  0  0  0  0  0  0
   -0.1149    0.4765    1.8349 C   0  0  0  0  0  0  0  0  0  0  0  0
    1.3337    0.6127    1.2769 C   0  0  0  0  0  0  0  0  0  0  0  0
    1.4561   -0.0251    0.0006 O   0  0  0  0  0  0  0  0  0  0  0  0
    2.7706   -0.0632   -0.3976 C   0  0  0  0  0  0  0  0  0  0  0  0
    3.2488    0.9122   -1.2904 C   0  0  0  0  0  0  0  0  0  0  0  0
    4.5830    0.8538   -1.7143 C   0  0  0  0  0  0  0  0  0  0  0  0
    5.4261   -0.1712   -1.2644 C   0  0  0  0  0  0  0  0  0  0  0  0
    6.8181   -0.2510   -1.6810 C   0  0  0  0  0  0  0  0  0  0  0  0
    7.5860   -1.2473   -1.2301 C   0  0  0  0  0  0  0  0  0  0  0  0
    7.0790   -2.2866   -0.3175 C   0  0  0  0  0  0  0  0  0  0  0  0
    7.8124   -3.1895    0.0677 O   0  0  0  0  0  0  0  0  0  0  0  0
    5.7513   -2.1863    0.0669 O   0  0  0  0  0  0  0  0  0  0  0  0
    4.9248   -1.1403   -0.3965 C   0  0  0  0  0  0  0  0  0  0  0  0
    3.5976   -1.1098    0.0267 C   0  0  0  0  0  0  0  0  0  0  0  0
    3.1503   -2.0578    0.9101 O   0  0  0  0  0  0  0  0  0  0  0  0
    2.4006   -3.0596    0.2230 C   0  0  0  0  0  0  0  0  0  0  0  0
    2.3490    1.8750   -1.6672 O   0  0  0  0  0  0  0  0  0  0  0  0
    2.7547    2.8033   -2.6629 C   0  0  0  0  0  0  0  0  0  0  0  0
   -0.7608    2.4627    0.4340 C   0  0  0  0  0  0  0  0  0  0  0  0
   -4.7227   -0.2875    0.2775 O   0  0  0  0  0  0  0  0  0  0  0  0
   -6.0577   -0.2431    0.5347 C   0  0  0  0  0  0  0  0  0  0  0  0
   -6.7879    0.7228    0.3668 O   0  0  0  0  0  0  0  0  0  0  0  0
   -6.5147   -1.5674    1.0647 C   0  0  0  0  0  0  0  0  0  0  0  0
   -2.5481    1.7619   -2.0456 C   0  0  0  0  0  0  0  0  0  0  0  0
   -3.2856   -0.5746   -2.1395 C   0  0  0  0  0  0  0  0  0  0  0  0
   -0.0075   -2.4775    3.7490 H   0  0  0  0  0  0  0  0  0  0  0  0
   -0.0343   -0.8177    4.3493 H   0  0  0  0  0  0  0  0  0  0  0  0
    1.3717   -1.4202    3.4443 H   0  0  0  0  0  0  0  0  0  0  0  0
   -1.2370   -2.8191    1.7751 H   0  0  0  0  0  0  0  0  0  0  0  0
   -2.8368   -1.6180    0.3924 H   0  0  0  0  0  0  0  0  0  0  0  0
   -1.4486   -2.0365   -0.5852 H   0  0  0  0  0  0  0  0  0  0  0  0
   -0.7770    0.0956   -0.9578 H   0  0  0  0  0  0  0  0  0  0  0  0
   -4.8512    1.4374   -0.8664 H   0  0  0  0  0  0  0  0  0  0  0  0
   -4.6046    1.8856    1.6363 H   0  0  0  0  0  0  0  0  0  0  0  0
   -3.5660    2.8338    0.6034 H   0  0  0  0  0  0  0  0  0  0  0  0
   -2.8494    0.3721    2.2641 H   0  0  0  0  0  0  0  0  0  0  0  0
   -2.3435    2.0203    2.5646 H   0  0  0  0  0  0  0  0  0  0  0  0
   -0.1323    1.0657    2.7643 H   0  0  0  0  0  0  0  0  0  0  0  0
    2.0449    0.1830    1.9940 H   0  0  0  0  0  0  0  0  0  0  0  0
    1.6034    1.6709    1.1786 H   0  0  0  0  0  0  0  0  0  0  0  0
    4.9865    1.6007   -2.3901 H   0  0  0  0  0  0  0  0  0  0  0  0
    7.2167    0.5012   -2.3530 H   0  0  0  0  0  0  0  0  0  0  0  0
    8.6265   -1.3417   -1.5163 H   0  0  0  0  0  0  0  0  0  0  0  0
    1.5054   -2.6463   -0.2524 H   0  0  0  0  0  0  0  0  0  0  0  0
    2.0778   -3.7997    0.9613 H   0  0  0  0  0  0  0  0  0  0  0  0
    3.0213   -3.5714   -0.5209 H   0  0  0  0  0  0  0  0  0  0  0  0
    3.0385    2.2933   -3.5894 H   0  0  0  0  0  0  0  0  0  0  0  0
    3.5658    3.4412   -2.2973 H   0  0  0  0  0  0  0  0  0  0  0  0
    1.8995    3.4483   -2.8865 H   0  0  0  0  0  0  0  0  0  0  0  0
   -1.5500    3.1424    0.1200 H   0  0  0  0  0  0  0  0  0  0  0  0
   -0.0564    2.3683   -0.3976 H   0  0  0  0  0  0  0  0  0  0  0  0
   -0.2543    2.9945    1.2490 H   0  0  0  0  0  0  0  0  0  0  0  0
   -6.3278   -2.3478    0.3227 H   0  0  0  0  0  0  0  0  0  0  0  0
   -5.9941   -1.7918    1.9991 H   0  0  0  0  0  0  0  0  0  0  0  0
   -7.5892   -1.5268    1.2648 H   0  0  0  0  0  0  0  0  0  0  0  0
   -3.2793    1.8633   -2.8574 H   0  0  0  0  0  0  0  0  0  0  0  0
   -2.5766    2.7165   -1.5230 H   0  0  0  0  0  0  0  0  0  0  0  0
   -1.5639    1.6472   -2.5125 H   0  0  0  0  0  0  0  0  0  0  0  0
   -2.4401   -0.8328   -2.7878 H   0  0  0  0  0  0  0  0  0  0  0  0
   -4.1122   -0.2523   -2.7841 H   0  0  0  0  0  0  0  0  0  0  0  0
   -3.6207   -1.4935   -1.6508 H   0  0  0  0  0  0  0  0  0  0  0  0
  1  2  1  0
  2  3  2  0
  3  4  1  0
  4  5  1  0
  5  6  1  0
  6  7  1  0
  7  8  1  0
  8  9  1  0
  9 10  1  0
 10 11  1  0
 11 12  1  0
 12 13  1  0
 13 14  1  0
 14 15  1  0
 15 16  2  0
 16 17  1  0
 17 18  1  0
 18 19  2  0
 19 20  1  0
 20 21  2  0
 20 22  1  0
 22 23  1  0
 23 24  1  0
 24 25  1  0
 25 26  1  0
 15 27  1  0
 27 28  1  0
 10 29  1  0
  7 30  1  0
 30 31  1  0
 31 32  2  0
 31 33  1  0
  6 34  1  0
  6 35  1  0
 11  2  1  0
 10  5  1  0
 24 14  2  0
 23 17  2  0
  1 36  1  0
  1 37  1  0
  1 38  1  0
  3 39  1  0
  4 40  1  0
  4 41  1  0
  5 42  1  0
  7 43  1  0
  8 44  1  0
  8 45  1  0
  9 46  1  0
  9 47  1  0
 11 48  1  0
 12 49  1  0
 12 50  1  0
 16 51  1  0
 18 52  1  0
 19 53  1  0
 26 54  1  0
 26 55  1  0
 26 56  1  0
 28 57  1  0
 28 58  1  0
 28 59  1  0
 29 60  1  0
 29 61  1  0
 29 62  1  0
 33 63  1  0
 33 64  1  0
 33 65  1  0
 34 66  1  0
 34 67  1  0
 34 68  1  0
 35 69  1  0
 35 70  1  0
 35 71  1  0
M  END
>  <Name>  (697) 
Acetylpectachol

>  <PubChem ID>  (697) 
101317806

>  <CDB ID>  (697) 
CDB0697

>  <Smiles>  (697) 
CC1=CCC2C(C(CCC2(C1COC3=C(C=C4C=CC(=O)OC4=C3OC)OC)C)OC(=O)C)(C)C

>  <Chemical class>  (697) 
6,7,8-Trioxygenated Coumarins

>  <Natural source>  (697) 
Achillea pseudopectinata

>  <Molecular Formula>  (697) 
C28H36O7

>  <InChI-Key>  (697) 
YMIXTMQQHRBULF-UHFFFAOYSA-N

>  <Total Molweight>  (697) 
484.587

>  <cLogP>  (697) 
4.6968

>  <cLogS>  (697) 
-5.417

>  <H-Acceptors>  (697) 
7

>  <H-Donors>  (697) 
0

>  <Rotatable Bonds>  (697) 
7

>  <Polar Surface Area>  (697) 
80.29

$$$$
CDB0698
     RDKit          3D

 66 69  0  0  0  0  0  0  0  0999 V2000
   -4.4324    1.0066    2.0446 C   0  0  0  0  0  0  0  0  0  0  0  0
   -3.6225   -0.0711    1.2842 C   0  0  0  0  0  0  0  0  0  0  0  0
   -2.3753    0.5313    0.5047 C   0  0  0  0  0  0  0  0  0  0  0  0
   -2.0817    2.0312    0.7297 C   0  0  0  0  0  0  0  0  0  0  0  0
   -0.7112    2.4388    0.1730 C   0  0  0  0  0  0  0  0  0  0  0  0
   -0.4957    1.9737   -1.2439 C   0  0  0  0  0  0  0  0  0  0  0  0
   -0.0922    2.8163   -2.2093 C   0  0  0  0  0  0  0  0  0  0  0  0
   -0.7957    0.4986   -1.5275 C   0  0  0  0  0  0  0  0  0  0  0  0
   -2.2563    0.1564   -1.0105 C   0  0  0  0  0  0  0  0  0  0  0  0
   -2.5560   -1.3511   -1.1284 C   0  0  0  0  0  0  0  0  0  0  0  0
   -3.9726   -1.7481   -0.7187 C   0  0  0  0  0  0  0  0  0  0  0  0
   -4.5978   -0.9232    0.4134 C   0  0  0  0  0  0  0  0  0  0  0  0
   -5.6347   -0.0979   -0.1270 O   0  0  0  0  0  0  0  0  0  0  0  0
   -3.2315    0.9484   -1.9266 C   0  0  0  0  0  0  0  0  0  0  0  0
    0.3370   -0.4013   -0.9685 C   0  0  0  0  0  0  0  0  0  0  0  0
    1.5478   -0.1558   -1.7015 O   0  0  0  0  0  0  0  0  0  0  0  0
    2.6976   -0.2560   -0.9496 C   0  0  0  0  0  0  0  0  0  0  0  0
    3.6078    0.8174   -1.0576 C   0  0  0  0  0  0  0  0  0  0  0  0
    4.8166    0.7751   -0.3537 C   0  0  0  0  0  0  0  0  0  0  0  0
    5.1367   -0.3358    0.4316 C   0  0  0  0  0  0  0  0  0  0  0  0
    6.4009   -0.4105    1.1502 C   0  0  0  0  0  0  0  0  0  0  0  0
    6.6963   -1.5004    1.8639 C   0  0  0  0  0  0  0  0  0  0  0  0
    5.7821   -2.6489    1.9568 C   0  0  0  0  0  0  0  0  0  0  0  0
    6.0731   -3.6318    2.6275 O   0  0  0  0  0  0  0  0  0  0  0  0
    4.5881   -2.5500    1.2596 O   0  0  0  0  0  0  0  0  0  0  0  0
    4.2385   -1.4014    0.5127 C   0  0  0  0  0  0  0  0  0  0  0  0
    3.0092   -1.3761   -0.1587 C   0  0  0  0  0  0  0  0  0  0  0  0
    2.1424   -2.4392   -0.1615 O   0  0  0  0  0  0  0  0  0  0  0  0
    1.7818   -2.9049    1.1379 C   0  0  0  0  0  0  0  0  0  0  0  0
    3.2202    1.8546   -1.8680 O   0  0  0  0  0  0  0  0  0  0  0  0
    4.0877    2.9717   -1.9859 C   0  0  0  0  0  0  0  0  0  0  0  0
   -3.0567   -1.0288    2.3751 C   0  0  0  0  0  0  0  0  0  0  0  0
   -3.8413    1.4806    2.8352 H   0  0  0  0  0  0  0  0  0  0  0  0
   -5.3084    0.5639    2.5344 H   0  0  0  0  0  0  0  0  0  0  0  0
   -4.7941    1.7914    1.3721 H   0  0  0  0  0  0  0  0  0  0  0  0
   -1.5117    0.0387    0.9746 H   0  0  0  0  0  0  0  0  0  0  0  0
   -2.8646    2.6499    0.2768 H   0  0  0  0  0  0  0  0  0  0  0  0
   -2.0723    2.2602    1.8010 H   0  0  0  0  0  0  0  0  0  0  0  0
   -0.6095    3.5280    0.2525 H   0  0  0  0  0  0  0  0  0  0  0  0
    0.0765    2.0116    0.8060 H   0  0  0  0  0  0  0  0  0  0  0  0
    0.1130    3.8618   -2.0052 H   0  0  0  0  0  0  0  0  0  0  0  0
    0.0668    2.4726   -3.2271 H   0  0  0  0  0  0  0  0  0  0  0  0
   -0.7877    0.3502   -2.6180 H   0  0  0  0  0  0  0  0  0  0  0  0
   -2.3670   -1.7020   -2.1508 H   0  0  0  0  0  0  0  0  0  0  0  0
   -1.8713   -1.9161   -0.4843 H   0  0  0  0  0  0  0  0  0  0  0  0
   -3.9408   -2.8016   -0.4112 H   0  0  0  0  0  0  0  0  0  0  0  0
   -4.6164   -1.7189   -1.6069 H   0  0  0  0  0  0  0  0  0  0  0  0
   -5.1359   -1.6202    1.0695 H   0  0  0  0  0  0  0  0  0  0  0  0
   -6.2803   -0.6791   -0.5642 H   0  0  0  0  0  0  0  0  0  0  0  0
   -3.0359    2.0247   -1.9260 H   0  0  0  0  0  0  0  0  0  0  0  0
   -3.1365    0.6080   -2.9650 H   0  0  0  0  0  0  0  0  0  0  0  0
   -4.2774    0.8377   -1.6582 H   0  0  0  0  0  0  0  0  0  0  0  0
    0.4769   -0.2322    0.1054 H   0  0  0  0  0  0  0  0  0  0  0  0
    0.0852   -1.4512   -1.1357 H   0  0  0  0  0  0  0  0  0  0  0  0
    5.5279    1.5918   -0.4179 H   0  0  0  0  0  0  0  0  0  0  0  0
    7.0931    0.4229    1.0943 H   0  0  0  0  0  0  0  0  0  0  0  0
    7.6273   -1.5927    2.4098 H   0  0  0  0  0  0  0  0  0  0  0  0
    1.8306   -2.1188    1.9002 H   0  0  0  0  0  0  0  0  0  0  0  0
    0.7459   -3.2549    1.0882 H   0  0  0  0  0  0  0  0  0  0  0  0
    2.4059   -3.7579    1.4187 H   0  0  0  0  0  0  0  0  0  0  0  0
    5.0445    2.6828   -2.4329 H   0  0  0  0  0  0  0  0  0  0  0  0
    4.2343    3.4620   -1.0180 H   0  0  0  0  0  0  0  0  0  0  0  0
    3.6129    3.6950   -2.6559 H   0  0  0  0  0  0  0  0  0  0  0  0
   -2.5091   -1.8664    1.9292 H   0  0  0  0  0  0  0  0  0  0  0  0
   -2.3728   -0.4999    3.0494 H   0  0  0  0  0  0  0  0  0  0  0  0
   -3.8592   -1.4497    2.9922 H   0  0  0  0  0  0  0  0  0  0  0  0
  1  2  1  0
  2  3  1  0
  3  4  1  0
  4  5  1  0
  5  6  1  0
  6  7  2  0
  6  8  1  0
  8  9  1  0
  9 10  1  0
 10 11  1  0
 11 12  1  0
 12 13  1  0
  9 14  1  0
  8 15  1  0
 15 16  1  0
 16 17  1  0
 17 18  1  0
 18 19  2  0
 19 20  1  0
 20 21  1  0
 21 22  2  0
 22 23  1  0
 23 24  2  0
 23 25  1  0
 25 26  1  0
 26 27  1  0
 27 28  1  0
 28 29  1  0
 18 30  1  0
 30 31  1  0
  2 32  1  0
 12  2  1  0
  9  3  1  0
 27 17  2  0
 26 20  2  0
  1 33  1  0
  1 34  1  0
  1 35  1  0
  3 36  1  0
  4 37  1  0
  4 38  1  0
  5 39  1  0
  5 40  1  0
  7 41  1  0
  7 42  1  0
  8 43  1  0
 10 44  1  0
 10 45  1  0
 11 46  1  0
 11 47  1  0
 12 48  1  0
 13 49  1  0
 14 50  1  0
 14 51  1  0
 14 52  1  0
 15 53  1  0
 15 54  1  0
 19 55  1  0
 21 56  1  0
 22 57  1  0
 29 58  1  0
 29 59  1  0
 29 60  1  0
 31 61  1  0
 31 62  1  0
 31 63  1  0
 32 64  1  0
 32 65  1  0
 32 66  1  0
M  END
>  <Name>  (698) 
Pectachol B

>  <PubChem ID>  (698) 
101317805

>  <CDB ID>  (698) 
CDB0698

>  <Smiles>  (698) 
CC1(C2CCC(=C)C(C2(CCC1O)C)COC3=C(C=C4C=CC(=O)OC4=C3OC)OC)C

>  <Chemical class>  (698) 
6,7,8-Trioxygenated Coumarins

>  <Natural source>  (698) 
Brocchia cinerea

>  <Molecular Formula>  (698) 
C26H34O6

>  <InChI-Key>  (698) 
QISGCNZPAGFKFT-UHFFFAOYSA-N

>  <Total Molweight>  (698) 
442.55

>  <cLogP>  (698) 
4.2905

>  <cLogS>  (698) 
-5.174

>  <H-Acceptors>  (698) 
6

>  <H-Donors>  (698) 
1

>  <Rotatable Bonds>  (698) 
5

>  <Polar Surface Area>  (698) 
74.22

$$$$
CDB0699
     RDKit          3D

 24 26  0  0  0  0  0  0  0  0999 V2000
   -3.3400   -1.5549   -0.0109 C   0  0  0  0  0  0  0  0  0  0  0  0
   -2.8258   -0.2311   -0.0562 O   0  0  0  0  0  0  0  0  0  0  0  0
   -1.4691   -0.0848   -0.0307 C   0  0  0  0  0  0  0  0  0  0  0  0
   -0.9858    1.2162   -0.0757 C   0  0  0  0  0  0  0  0  0  0  0  0
    0.3606    1.4977   -0.0563 C   0  0  0  0  0  0  0  0  0  0  0  0
    1.2904    0.4838    0.0093 C   0  0  0  0  0  0  0  0  0  0  0  0
    0.8528   -0.8399    0.0563 C   0  0  0  0  0  0  0  0  0  0  0  0
   -0.5284   -1.1226    0.0362 C   0  0  0  0  0  0  0  0  0  0  0  0
    1.8488   -1.8985    0.1254 C   0  0  0  0  0  0  0  0  0  0  0  0
    3.1465   -1.5789    0.1420 C   0  0  0  0  0  0  0  0  0  0  0  0
    3.6219   -0.1841    0.0928 C   0  0  0  0  0  0  0  0  0  0  0  0
    4.8218    0.0644    0.1101 O   0  0  0  0  0  0  0  0  0  0  0  0
    2.6551    0.8078    0.0272 O   0  0  0  0  0  0  0  0  0  0  0  0
    0.6162    2.8322   -0.1081 O   0  0  0  0  0  0  0  0  0  0  0  0
   -0.7202    3.3663   -0.1625 C   0  0  0  0  0  0  0  0  0  0  0  0
   -1.7407    2.3510   -0.1425 O   0  0  0  0  0  0  0  0  0  0  0  0
   -4.4320   -1.4913   -0.0392 H   0  0  0  0  0  0  0  0  0  0  0  0
   -3.0594   -2.0555    0.9217 H   0  0  0  0  0  0  0  0  0  0  0  0
   -3.0172   -2.1336   -0.8827 H   0  0  0  0  0  0  0  0  0  0  0  0
   -0.8470   -2.1597    0.0736 H   0  0  0  0  0  0  0  0  0  0  0  0
    1.5259   -2.9330    0.1626 H   0  0  0  0  0  0  0  0  0  0  0  0
    3.9204   -2.3353    0.1928 H   0  0  0  0  0  0  0  0  0  0  0  0
   -0.8266    3.9534   -1.0819 H   0  0  0  0  0  0  0  0  0  0  0  0
   -0.8683    4.0303    0.6969 H   0  0  0  0  0  0  0  0  0  0  0  0
  1  2  1  0
  2  3  1  0
  3  4  1  0
  4  5  2  0
  5  6  1  0
  6  7  2  0
  7  8  1  0
  7  9  1  0
  9 10  2  0
 10 11  1  0
 11 12  2  0
 11 13  1  0
  5 14  1  0
 14 15  1  0
 15 16  1  0
  8  3  2  0
 16  4  1  0
 13  6  1  0
  1 17  1  0
  1 18  1  0
  1 19  1  0
  8 20  1  0
  9 21  1  0
 10 22  1  0
 15 23  1  0
 15 24  1  0
M  END
>  <Name>  (699) 
Dracunculin

>  <PubChem ID>  (699) 
5319474

>  <CDB ID>  (699) 
CDB0699

>  <Smiles>  (699) 
COC1=C2C(=C3C(=C1)C=CC(=O)O3)OCO2

>  <Chemical class>  (699) 
6,7,8-Trioxygenated Coumarins

>  <Natural source>  (699) 
Artemisia dracunculoides

>  <Molecular Formula>  (699) 
C11H8O5

>  <InChI-Key>  (699) 
GHIKZCCKJTXOGO-UHFFFAOYSA-N

>  <Total Molweight>  (699) 
220.18

>  <cLogP>  (699) 
1.5388

>  <cLogS>  (699) 
-3.099

>  <H-Acceptors>  (699) 
5

>  <H-Donors>  (699) 
0

>  <Rotatable Bonds>  (699) 
1

>  <Polar Surface Area>  (699) 
53.99

$$$$
CDB0700
     RDKit          3D

 41 43  0  0  0  0  0  0  0  0999 V2000
   -4.8901   -2.3816    1.2142 C   0  0  0  0  0  0  0  0  0  0  0  0
   -3.7588   -1.5804    0.6398 C   0  0  0  0  0  0  0  0  0  0  0  0
   -2.4516   -1.7544    1.1065 C   0  0  0  0  0  0  0  0  0  0  0  0
   -1.3835   -1.0325    0.5435 C   0  0  0  0  0  0  0  0  0  0  0  0
   -1.6055   -0.1111   -0.4829 C   0  0  0  0  0  0  0  0  0  0  0  0
   -2.9195    0.0854   -0.9332 C   0  0  0  0  0  0  0  0  0  0  0  0
   -3.9707   -0.6722   -0.3961 C   0  0  0  0  0  0  0  0  0  0  0  0
   -5.2342   -0.5318   -0.9056 O   0  0  0  0  0  0  0  0  0  0  0  0
   -3.2425    0.9465   -1.9531 O   0  0  0  0  0  0  0  0  0  0  0  0
   -3.4882    2.2602   -1.4386 C   0  0  0  0  0  0  0  0  0  0  0  0
   -0.4503    0.6144   -1.0654 C   0  0  0  0  0  0  0  0  0  0  0  0
   -0.5879    1.4558   -1.9481 O   0  0  0  0  0  0  0  0  0  0  0  0
    0.9197    0.3409   -0.5803 C   0  0  0  0  0  0  0  0  0  0  0  0
    2.0274    0.9966   -1.1380 C   0  0  0  0  0  0  0  0  0  0  0  0
    3.3177    0.7282   -0.6583 C   0  0  0  0  0  0  0  0  0  0  0  0
    3.5253   -0.2095    0.3655 C   0  0  0  0  0  0  0  0  0  0  0  0
    2.4182   -0.8518    0.9213 C   0  0  0  0  0  0  0  0  0  0  0  0
    1.1233   -0.5767    0.4474 C   0  0  0  0  0  0  0  0  0  0  0  0
   -0.0213   -1.2775    1.0567 C   0  0  0  0  0  0  0  0  0  0  0  0
    0.1606   -2.0587    1.9833 O   0  0  0  0  0  0  0  0  0  0  0  0
    4.8235   -0.4082    0.7540 O   0  0  0  0  0  0  0  0  0  0  0  0
    5.0788   -1.4513    1.6857 C   0  0  0  0  0  0  0  0  0  0  0  0
    4.4042    1.3274   -1.2517 O   0  0  0  0  0  0  0  0  0  0  0  0
    4.6629    2.5893   -0.6394 C   0  0  0  0  0  0  0  0  0  0  0  0
    1.8997    1.9129   -2.1536 O   0  0  0  0  0  0  0  0  0  0  0  0
   -5.7068   -1.7220    1.5250 H   0  0  0  0  0  0  0  0  0  0  0  0
   -5.2623   -3.0944    0.4716 H   0  0  0  0  0  0  0  0  0  0  0  0
   -4.5724   -2.9466    2.0969 H   0  0  0  0  0  0  0  0  0  0  0  0
   -2.2562   -2.4696    1.9060 H   0  0  0  0  0  0  0  0  0  0  0  0
   -5.1426    0.0076   -1.7148 H   0  0  0  0  0  0  0  0  0  0  0  0
   -4.4354    2.2837   -0.8894 H   0  0  0  0  0  0  0  0  0  0  0  0
   -2.6756    2.6143   -0.7952 H   0  0  0  0  0  0  0  0  0  0  0  0
   -3.5713    2.9419   -2.2901 H   0  0  0  0  0  0  0  0  0  0  0  0
    2.5334   -1.5737    1.7256 H   0  0  0  0  0  0  0  0  0  0  0  0
    6.1622   -1.5172    1.8249 H   0  0  0  0  0  0  0  0  0  0  0  0
    4.6316   -1.2253    2.6591 H   0  0  0  0  0  0  0  0  0  0  0  0
    4.7324   -2.4178    1.3048 H   0  0  0  0  0  0  0  0  0  0  0  0
    3.8334    3.2875   -0.7940 H   0  0  0  0  0  0  0  0  0  0  0  0
    4.8694    2.4780    0.4309 H   0  0  0  0  0  0  0  0  0  0  0  0
    5.5534    3.0143   -1.1121 H   0  0  0  0  0  0  0  0  0  0  0  0
    0.9496    1.9796   -2.3989 H   0  0  0  0  0  0  0  0  0  0  0  0
  1  2  1  0
  2  3  1  0
  3  4  2  0
  4  5  1  0
  5  6  2  0
  6  7  1  0
  7  8  1  0
  6  9  1  0
  9 10  1  0
  5 11  1  0
 11 12  2  0
 11 13  1  0
 13 14  1  0
 14 15  2  0
 15 16  1  0
 16 17  2  0
 17 18  1  0
 18 19  1  0
 19 20  2  0
 16 21  1  0
 21 22  1  0
 15 23  1  0
 23 24  1  0
 14 25  1  0
  7  2  2  0
 19  4  1  0
 18 13  2  0
  1 26  1  0
  1 27  1  0
  1 28  1  0
  3 29  1  0
  8 30  1  0
 10 31  1  0
 10 32  1  0
 10 33  1  0
 17 34  1  0
 22 35  1  0
 22 36  1  0
 22 37  1  0
 24 38  1  0
 24 39  1  0
 24 40  1  0
 25 41  1  0
M  END
>  <Name>  (700) 
Obtusin

>  <PubChem ID>  (700) 
155380

>  <CDB ID>  (700) 
CDB0700

>  <Smiles>  (700) 
CC1=CC2=C(C(=C1O)OC)C(=O)C3=C(C(=C(C=C3C2=O)OC)OC)O

>  <Chemical class>  (700) 
6,7,8-Trioxygenated Coumarins

>  <Natural source>  (700) 
Haplophyllum obtusifolium

>  <Molecular Formula>  (700) 
C18H16O7

>  <InChI-Key>  (700) 
CFLNHFUPWNRWJA-UHFFFAOYSA-N

>  <Total Molweight>  (700) 
344.318

>  <cLogP>  (700) 
2.4759

>  <cLogS>  (700) 
-4.536

>  <H-Acceptors>  (700) 
7

>  <H-Donors>  (700) 
2

>  <Rotatable Bonds>  (700) 
3

>  <Polar Surface Area>  (700) 
102.29

$$$$
CDB0701
     RDKit          3D

 37 39  0  0  0  0  0  0  0  0999 V2000
   -2.4189    3.8743   -1.7648 C   0  0  0  0  0  0  0  0  0  0  0  0
   -1.2876    3.1259   -1.3430 O   0  0  0  0  0  0  0  0  0  0  0  0
   -1.5035    1.8628   -0.8531 C   0  0  0  0  0  0  0  0  0  0  0  0
   -0.3520    1.1337   -0.5003 C   0  0  0  0  0  0  0  0  0  0  0  0
    0.8663    1.7498   -0.6695 O   0  0  0  0  0  0  0  0  0  0  0  0
    1.9194    1.0731    0.0277 C   0  0  0  0  0  0  0  0  0  0  0  0
    1.8544   -0.4305   -0.2332 C   0  0  1  0  0  0  0  0  0  0  0  0
    3.0399   -1.2370    0.3717 C   0  0  0  0  0  0  0  0  0  0  0  0
    4.4001   -0.7102   -0.0966 C   0  0  0  0  0  0  0  0  0  0  0  0
    2.9959   -1.2910    1.9043 C   0  0  0  0  0  0  0  0  0  0  0  0
    2.9425   -2.5862   -0.1217 O   0  0  0  0  0  0  0  0  0  0  0  0
    0.6220   -0.9395    0.3228 O   0  0  0  0  0  0  0  0  0  0  0  0
   -0.4628   -0.1704   -0.0067 C   0  0  0  0  0  0  0  0  0  0  0  0
   -1.7307   -0.7214    0.1769 C   0  0  0  0  0  0  0  0  0  0  0  0
   -1.8224   -2.0289    0.7041 O   0  0  0  0  0  0  0  0  0  0  0  0
   -3.0455   -2.6446    0.9148 C   0  0  0  0  0  0  0  0  0  0  0  0
   -3.1486   -3.7731    1.3815 O   0  0  0  0  0  0  0  0  0  0  0  0
   -4.2469   -1.8734    0.5513 C   0  0  0  0  0  0  0  0  0  0  0  0
   -4.1815   -0.6367    0.0495 C   0  0  0  0  0  0  0  0  0  0  0  0
   -2.8835   -0.0113   -0.1538 C   0  0  0  0  0  0  0  0  0  0  0  0
   -2.7665    1.2822   -0.6758 C   0  0  0  0  0  0  0  0  0  0  0  0
   -2.0604    4.8326   -2.1528 H   0  0  0  0  0  0  0  0  0  0  0  0
   -3.0870    4.0855   -0.9234 H   0  0  0  0  0  0  0  0  0  0  0  0
   -2.9507    3.3652   -2.5753 H   0  0  0  0  0  0  0  0  0  0  0  0
    1.8302    1.3124    1.0943 H   0  0  0  0  0  0  0  0  0  0  0  0
    2.8549    1.5028   -0.3400 H   0  0  0  0  0  0  0  0  0  0  0  0
    1.8138   -0.6242   -1.3150 H   0  0  0  0  0  0  0  0  0  0  0  0
    5.2041   -1.3974    0.1924 H   0  0  0  0  0  0  0  0  0  0  0  0
    4.4336   -0.6402   -1.1898 H   0  0  0  0  0  0  0  0  0  0  0  0
    4.6318    0.2724    0.3251 H   0  0  0  0  0  0  0  0  0  0  0  0
    3.8287   -1.8869    2.2961 H   0  0  0  0  0  0  0  0  0  0  0  0
    3.0566   -0.2937    2.3499 H   0  0  0  0  0  0  0  0  0  0  0  0
    2.0823   -1.7800    2.2597 H   0  0  0  0  0  0  0  0  0  0  0  0
    3.5179   -3.1556    0.4167 H   0  0  0  0  0  0  0  0  0  0  0  0
   -5.1931   -2.3737    0.7177 H   0  0  0  0  0  0  0  0  0  0  0  0
   -5.0819   -0.0908   -0.2097 H   0  0  0  0  0  0  0  0  0  0  0  0
   -3.6710    1.8240   -0.9317 H   0  0  0  0  0  0  0  0  0  0  0  0
  1  2  1  0
  2  3  1  0
  3  4  1  0
  4  5  1  0
  5  6  1  0
  6  7  1  0
  7  8  1  0
  8  9  1  0
  8 10  1  0
  8 11  1  0
  7 12  1  0
 12 13  1  0
 13 14  1  0
 14 15  1  0
 15 16  1  0
 16 17  2  0
 16 18  1  0
 18 19  2  0
 19 20  1  0
 20 21  1  0
 21  3  2  0
 13  4  2  0
 20 14  2  0
  1 22  1  0
  1 23  1  0
  1 24  1  0
  6 25  1  0
  6 26  1  0
  7 27  1  6
  9 28  1  0
  9 29  1  0
  9 30  1  0
 10 31  1  0
 10 32  1  0
 10 33  1  0
 11 34  1  0
 18 35  1  0
 19 36  1  0
 21 37  1  0
M  END
>  <Name>  (701) 
(Obtusifol) Purpurasol

>  <PubChem ID>  (701) 
11507587

>  <CDB ID>  (701) 
CDB0701

>  <Smiles>  (701) 
COC1=C2OC[C@@H](C(C)(C)O)OC2=C2OC(=O)C=CC2=C1

>  <Chemical class>  (701) 
6,7,8-Trioxygenated Coumarins

>  <Natural source>  (701) 
Haplophyllum obtusifolium, Pterocaulon purpurascens

>  <Molecular Formula>  (701) 
C15H16O6

>  <InChI-Key>  (701) 
MZKOYZNRGQIMIE-JTQLQIEISA-N

>  <Total Molweight>  (701) 
292.286

>  <cLogP>  (701) 
1.5441

>  <cLogS>  (701) 
-2.928

>  <H-Acceptors>  (701) 
6

>  <H-Donors>  (701) 
1

>  <Rotatable Bonds>  (701) 
2

>  <Polar Surface Area>  (701) 
74.22

$$$$
CDB0702
     RDKit          3D

 46 49  0  0  0  0  0  0  0  0999 V2000
    5.6463    0.6676    1.6375 C   0  0  0  0  0  0  0  0  0  0  0  0
    5.6749   -0.2410    0.5422 O   0  0  0  0  0  0  0  0  0  0  0  0
    4.4688   -0.5368   -0.0397 C   0  0  0  0  0  0  0  0  0  0  0  0
    4.5385   -1.3986   -1.1390 C   0  0  0  0  0  0  0  0  0  0  0  0
    3.4015   -1.7828   -1.8363 C   0  0  0  0  0  0  0  0  0  0  0  0
    2.1581   -1.2980   -1.4345 C   0  0  0  0  0  0  0  0  0  0  0  0
    2.0512   -0.4338   -0.3313 C   0  0  0  0  0  0  0  0  0  0  0  0
    3.2204   -0.0590    0.3615 C   0  0  0  0  0  0  0  0  0  0  0  0
    0.7074    0.1299    0.1002 C   0  0  0  0  0  0  0  0  0  0  0  0
    0.2295    1.2887   -0.7905 C   0  0  0  0  0  0  0  0  0  0  0  0
   -1.0171    1.8095   -0.2816 O   0  0  0  0  0  0  0  0  0  0  0  0
   -1.9213    0.8224    0.0276 C   0  0  0  0  0  0  0  0  0  0  0  0
   -3.2636    1.2088    0.2044 C   0  0  0  0  0  0  0  0  0  0  0  0
   -4.2266    0.2359    0.5016 C   0  0  0  0  0  0  0  0  0  0  0  0
   -3.8578   -1.1085    0.6243 C   0  0  0  0  0  0  0  0  0  0  0  0
   -4.8358   -2.1432    0.9246 C   0  0  0  0  0  0  0  0  0  0  0  0
   -4.4388   -3.4140    1.0383 C   0  0  0  0  0  0  0  0  0  0  0  0
   -3.0332   -3.8221    0.8714 C   0  0  0  0  0  0  0  0  0  0  0  0
   -2.7088   -4.9983    0.9825 O   0  0  0  0  0  0  0  0  0  0  0  0
   -2.1223   -2.8167    0.5876 O   0  0  0  0  0  0  0  0  0  0  0  0
   -2.5211   -1.4675    0.4603 C   0  0  0  0  0  0  0  0  0  0  0  0
   -1.5428   -0.5142    0.1781 C   0  0  0  0  0  0  0  0  0  0  0  0
   -0.2497   -0.9460    0.0518 O   0  0  0  0  0  0  0  0  0  0  0  0
   -3.5242    2.5478    0.0582 O   0  0  0  0  0  0  0  0  0  0  0  0
   -4.8678    2.9813    0.2207 C   0  0  0  0  0  0  0  0  0  0  0  0
    1.1957    2.4779   -0.8169 C   0  0  0  0  0  0  0  0  0  0  0  0
    1.4265    2.9774    0.5021 O   0  0  0  0  0  0  0  0  0  0  0  0
    5.7482   -1.8841   -1.5571 O   0  0  0  0  0  0  0  0  0  0  0  0
    5.2563    1.6439    1.3310 H   0  0  0  0  0  0  0  0  0  0  0  0
    6.6763    0.8127    1.9772 H   0  0  0  0  0  0  0  0  0  0  0  0
    5.0743    0.2564    2.4757 H   0  0  0  0  0  0  0  0  0  0  0  0
    3.4841   -2.4570   -2.6835 H   0  0  0  0  0  0  0  0  0  0  0  0
    1.2694   -1.6088   -1.9808 H   0  0  0  0  0  0  0  0  0  0  0  0
    3.1257    0.6193    1.2049 H   0  0  0  0  0  0  0  0  0  0  0  0
    0.7649    0.4432    1.1523 H   0  0  0  0  0  0  0  0  0  0  0  0
    0.0531    0.9502   -1.8208 H   0  0  0  0  0  0  0  0  0  0  0  0
   -5.2693    0.5042    0.6373 H   0  0  0  0  0  0  0  0  0  0  0  0
   -5.8777   -1.8705    1.0528 H   0  0  0  0  0  0  0  0  0  0  0  0
   -5.1355   -4.2133    1.2606 H   0  0  0  0  0  0  0  0  0  0  0  0
   -5.5221    2.5283   -0.5313 H   0  0  0  0  0  0  0  0  0  0  0  0
   -5.2281    2.7778    1.2344 H   0  0  0  0  0  0  0  0  0  0  0  0
   -4.8899    4.0650    0.0713 H   0  0  0  0  0  0  0  0  0  0  0  0
    0.7727    3.3007   -1.4038 H   0  0  0  0  0  0  0  0  0  0  0  0
    2.1599    2.2125   -1.2590 H   0  0  0  0  0  0  0  0  0  0  0  0
    0.5523    3.2595    0.8358 H   0  0  0  0  0  0  0  0  0  0  0  0
    6.3973   -1.5067   -0.9321 H   0  0  0  0  0  0  0  0  0  0  0  0
  1  2  1  0
  2  3  1  0
  3  4  2  0
  4  5  1  0
  5  6  2  0
  6  7  1  0
  7  8  2  0
  7  9  1  0
  9 10  1  0
 10 11  1  0
 11 12  1  0
 12 13  1  0
 13 14  2  0
 14 15  1  0
 15 16  1  0
 16 17  2  0
 17 18  1  0
 18 19  2  0
 18 20  1  0
 20 21  1  0
 21 22  1  0
 22 23  1  0
 13 24  1  0
 24 25  1  0
 10 26  1  0
 26 27  1  0
  4 28  1  0
  8  3  1  0
 23  9  1  0
 22 12  2  0
 21 15  2  0
  1 29  1  0
  1 30  1  0
  1 31  1  0
  5 32  1  0
  6 33  1  0
  8 34  1  0
  9 35  1  0
 10 36  1  0
 14 37  1  0
 16 38  1  0
 17 39  1  0
 25 40  1  0
 25 41  1  0
 25 42  1  0
 26 43  1  0
 26 44  1  0
 27 45  1  0
 28 46  1  0
M  END
>  <Name>  (702) 
Cleomiscosin B

>  <PubChem ID>  (702) 
156875

>  <CDB ID>  (702) 
CDB0702

>  <Smiles>  (702) 
COC1=C(C=CC(=C1)C2C(OC3=C(C=C4C=CC(=O)OC4=C3O2)OC)CO)O

>  <Chemical class>  (702) 
6,7,8-Trioxygenated Coumarins

>  <Natural source>  (702) 
Cleome viscosa

>  <Molecular Formula>  (702) 
C20H18O8

>  <InChI-Key>  (702) 
XGADTAYOFHOFIW-UHFFFAOYSA-N

>  <Total Molweight>  (702) 
386.355

>  <cLogP>  (702) 
1.9047

>  <cLogS>  (702) 
-3.257

>  <H-Acceptors>  (702) 
8

>  <H-Donors>  (702) 
2

>  <Rotatable Bonds>  (702) 
4

>  <Polar Surface Area>  (702) 
103.68

$$$$
CDB0703
     RDKit          3D

 50 53  0  0  0  0  0  0  0  0999 V2000
    4.8093    0.9630    3.3080 C   0  0  0  0  0  0  0  0  0  0  0  0
    5.1697    0.9823    1.9319 O   0  0  0  0  0  0  0  0  0  0  0  0
    4.1581    0.7794    1.0258 C   0  0  0  0  0  0  0  0  0  0  0  0
    2.8027    0.6473    1.3272 C   0  0  0  0  0  0  0  0  0  0  0  0
    1.8579    0.4335    0.3049 C   0  0  0  0  0  0  0  0  0  0  0  0
    2.3022    0.3693   -1.0312 C   0  0  0  0  0  0  0  0  0  0  0  0
    3.6549    0.5140   -1.3523 C   0  0  0  0  0  0  0  0  0  0  0  0
    4.5685    0.7125   -0.3128 C   0  0  0  0  0  0  0  0  0  0  0  0
    5.9068    0.8510   -0.5993 O   0  0  0  0  0  0  0  0  0  0  0  0
    4.1721    0.4667   -2.6198 O   0  0  0  0  0  0  0  0  0  0  0  0
    3.2498    0.4347   -3.6996 C   0  0  0  0  0  0  0  0  0  0  0  0
    0.3861    0.2818    0.6672 C   0  0  0  0  0  0  0  0  0  0  0  0
    0.0443   -1.0003    1.4515 C   0  0  0  0  0  0  0  0  0  0  0  0
   -1.3317   -0.9571    1.8804 O   0  0  0  0  0  0  0  0  0  0  0  0
   -2.2006   -0.4849    0.9248 C   0  0  0  0  0  0  0  0  0  0  0  0
   -3.5776   -0.6657    1.1563 C   0  0  0  0  0  0  0  0  0  0  0  0
   -4.5012   -0.2280    0.1975 C   0  0  0  0  0  0  0  0  0  0  0  0
   -4.0603    0.3823   -0.9823 C   0  0  0  0  0  0  0  0  0  0  0  0
   -4.9931    0.8377   -2.0020 C   0  0  0  0  0  0  0  0  0  0  0  0
   -4.5263    1.4115   -3.1150 C   0  0  0  0  0  0  0  0  0  0  0  0
   -3.0871    1.6069   -3.3608 C   0  0  0  0  0  0  0  0  0  0  0  0
   -2.6956    2.1276   -4.3984 O   0  0  0  0  0  0  0  0  0  0  0  0
   -2.2211    1.1733   -2.3692 O   0  0  0  0  0  0  0  0  0  0  0  0
   -2.6939    0.5614   -1.1876 C   0  0  0  0  0  0  0  0  0  0  0  0
   -1.7584    0.1506   -0.2388 C   0  0  0  0  0  0  0  0  0  0  0  0
   -0.4345    0.3739   -0.5105 O   0  0  0  0  0  0  0  0  0  0  0  0
   -3.9098   -1.2884    2.3324 O   0  0  0  0  0  0  0  0  0  0  0  0
   -5.2897   -1.4481    2.6307 C   0  0  0  0  0  0  0  0  0  0  0  0
    0.2997   -2.3135    0.6936 C   0  0  0  0  0  0  0  0  0  0  0  0
    1.6830   -2.6463    0.7084 O   0  0  0  0  0  0  0  0  0  0  0  0
    5.7242    1.0914    3.8943 H   0  0  0  0  0  0  0  0  0  0  0  0
    4.3663    0.0016    3.5883 H   0  0  0  0  0  0  0  0  0  0  0  0
    4.1395    1.7945    3.5505 H   0  0  0  0  0  0  0  0  0  0  0  0
    2.4533    0.7039    2.3531 H   0  0  0  0  0  0  0  0  0  0  0  0
    1.5701    0.1998   -1.8148 H   0  0  0  0  0  0  0  0  0  0  0  0
    6.3386    0.9743    0.2662 H   0  0  0  0  0  0  0  0  0  0  0  0
    2.5783    1.2996   -3.6763 H   0  0  0  0  0  0  0  0  0  0  0  0
    3.8229    0.4846   -4.6304 H   0  0  0  0  0  0  0  0  0  0  0  0
    2.6867   -0.5042   -3.7070 H   0  0  0  0  0  0  0  0  0  0  0  0
    0.1294    1.1580    1.2824 H   0  0  0  0  0  0  0  0  0  0  0  0
    0.6423   -1.0187    2.3711 H   0  0  0  0  0  0  0  0  0  0  0  0
   -5.5678   -0.3611    0.3476 H   0  0  0  0  0  0  0  0  0  0  0  0
   -6.0583    0.7058   -1.8464 H   0  0  0  0  0  0  0  0  0  0  0  0
   -5.1877    1.7631   -3.8977 H   0  0  0  0  0  0  0  0  0  0  0  0
   -5.7946   -0.4788    2.6982 H   0  0  0  0  0  0  0  0  0  0  0  0
   -5.3667   -1.9321    3.6091 H   0  0  0  0  0  0  0  0  0  0  0  0
   -5.7779   -2.0992    1.8982 H   0  0  0  0  0  0  0  0  0  0  0  0
   -0.0376   -2.2560   -0.3464 H   0  0  0  0  0  0  0  0  0  0  0  0
   -0.2473   -3.1352    1.1689 H   0  0  0  0  0  0  0  0  0  0  0  0
    1.8020   -3.4197    0.1299 H   0  0  0  0  0  0  0  0  0  0  0  0
  1  2  1  0
  2  3  1  0
  3  4  2  0
  4  5  1  0
  5  6  2  0
  6  7  1  0
  7  8  2  0
  8  9  1  0
  7 10  1  0
 10 11  1  0
  5 12  1  0
 12 13  1  0
 13 14  1  0
 14 15  1  0
 15 16  1  0
 16 17  2  0
 17 18  1  0
 18 19  1  0
 19 20  2  0
 20 21  1  0
 21 22  2  0
 21 23  1  0
 23 24  1  0
 24 25  1  0
 25 26  1  0
 16 27  1  0
 27 28  1  0
 13 29  1  0
 29 30  1  0
  8  3  1  0
 26 12  1  0
 25 15  2  0
 24 18  2  0
  1 31  1  0
  1 32  1  0
  1 33  1  0
  4 34  1  0
  6 35  1  0
  9 36  1  0
 11 37  1  0
 11 38  1  0
 11 39  1  0
 12 40  1  0
 13 41  1  0
 17 42  1  0
 19 43  1  0
 20 44  1  0
 28 45  1  0
 28 46  1  0
 28 47  1  0
 29 48  1  0
 29 49  1  0
 30 50  1  0
M  END
>  <Name>  (703) 
Cleomiscosin D

>  <PubChem ID>  (703) 
13965876

>  <CDB ID>  (703) 
CDB0703

>  <Smiles>  (703) 
COC1=CC(=CC(=C1O)OC)C2C(OC3=C(C=C4C=CC(=O)OC4=C3O2)OC)CO

>  <Chemical class>  (703) 
6,7,8-Trioxygenated Coumarins

>  <Natural source>  (703) 
Cleome viscosa

>  <Molecular Formula>  (703) 
C21H20O9

>  <InChI-Key>  (703) 
IXSZNNRKGDOXQI-UHFFFAOYSA-N

>  <Total Molweight>  (703) 
416.381

>  <cLogP>  (703) 
1.8347

>  <cLogS>  (703) 
-3.275

>  <H-Acceptors>  (703) 
9

>  <H-Donors>  (703) 
2

>  <Rotatable Bonds>  (703) 
5

>  <Polar Surface Area>  (703) 
112.91

$$$$
CDB0704
     RDKit          3D

 46 49  0  0  0  0  0  0  0  0999 V2000
    2.6311    1.8235   -2.3443 C   0  0  0  0  0  0  0  0  0  0  0  0
    3.4655    0.6963   -2.1187 O   0  0  0  0  0  0  0  0  0  0  0  0
    3.1850   -0.0961   -1.0363 C   0  0  0  0  0  0  0  0  0  0  0  0
    4.0132   -1.2098   -0.8545 C   0  0  0  0  0  0  0  0  0  0  0  0
    3.8100   -2.0871    0.2073 C   0  0  0  0  0  0  0  0  0  0  0  0
    2.7713   -1.8497    1.1079 C   0  0  0  0  0  0  0  0  0  0  0  0
    1.9311   -0.7308    0.9682 C   0  0  0  0  0  0  0  0  0  0  0  0
    2.1462    0.1298   -0.1240 C   0  0  0  0  0  0  0  0  0  0  0  0
    0.8037   -0.5438    1.9780 C   0  0  0  0  0  0  0  0  0  0  0  0
    0.2821    0.8642    2.3087 C   0  0  0  0  0  0  0  0  0  0  0  0
   -0.4156    1.4582    1.2011 O   0  0  0  0  0  0  0  0  0  0  0  0
   -1.2783    0.5747    0.6044 C   0  0  0  0  0  0  0  0  0  0  0  0
   -2.2317    1.0980   -0.2691 C   0  0  0  0  0  0  0  0  0  0  0  0
   -3.1545    0.2767   -0.9131 C   0  0  0  0  0  0  0  0  0  0  0  0
   -3.1212   -1.1027   -0.6817 C   0  0  0  0  0  0  0  0  0  0  0  0
   -2.1604   -1.6537    0.1768 C   0  0  0  0  0  0  0  0  0  0  0  0
   -1.2289   -0.8079    0.8097 C   0  0  0  0  0  0  0  0  0  0  0  0
   -0.2894   -1.4045    1.6177 O   0  0  0  0  0  0  0  0  0  0  0  0
   -2.0439   -2.9909    0.4606 O   0  0  0  0  0  0  0  0  0  0  0  0
   -2.9057   -3.8902   -0.2226 C   0  0  0  0  0  0  0  0  0  0  0  0
   -4.1314    0.8783   -1.8081 C   0  0  0  0  0  0  0  0  0  0  0  0
   -4.1246    2.2007   -2.0008 C   0  0  0  0  0  0  0  0  0  0  0  0
   -3.1575    3.0912   -1.3370 C   0  0  0  0  0  0  0  0  0  0  0  0
   -3.1755    4.2989   -1.5421 O   0  0  0  0  0  0  0  0  0  0  0  0
   -2.2426    2.4939   -0.4838 O   0  0  0  0  0  0  0  0  0  0  0  0
    1.3858    1.8258    2.7540 C   0  0  0  0  0  0  0  0  0  0  0  0
    0.8066    3.0330    3.2547 O   0  0  0  0  0  0  0  0  0  0  0  0
    5.0325   -1.4392   -1.7401 O   0  0  0  0  0  0  0  0  0  0  0  0
    2.9922    2.3324   -3.2432 H   0  0  0  0  0  0  0  0  0  0  0  0
    1.5956    1.5185   -2.5288 H   0  0  0  0  0  0  0  0  0  0  0  0
    2.6933    2.5337   -1.5132 H   0  0  0  0  0  0  0  0  0  0  0  0
    4.4414   -2.9591    0.3452 H   0  0  0  0  0  0  0  0  0  0  0  0
    2.6117   -2.5552    1.9221 H   0  0  0  0  0  0  0  0  0  0  0  0
    1.4899    0.9799   -0.2653 H   0  0  0  0  0  0  0  0  0  0  0  0
    1.1822   -0.9418    2.9302 H   0  0  0  0  0  0  0  0  0  0  0  0
   -0.4551    0.7918    3.1222 H   0  0  0  0  0  0  0  0  0  0  0  0
   -3.8494   -1.7327   -1.1823 H   0  0  0  0  0  0  0  0  0  0  0  0
   -2.6488   -4.9056    0.0942 H   0  0  0  0  0  0  0  0  0  0  0  0
   -3.9521   -3.7129    0.0463 H   0  0  0  0  0  0  0  0  0  0  0  0
   -2.7595   -3.8328   -1.3062 H   0  0  0  0  0  0  0  0  0  0  0  0
   -4.8544    0.2445   -2.3100 H   0  0  0  0  0  0  0  0  0  0  0  0
   -4.8344    2.6861   -2.6598 H   0  0  0  0  0  0  0  0  0  0  0  0
    1.9886    1.3908    3.5567 H   0  0  0  0  0  0  0  0  0  0  0  0
    2.0453    2.1092    1.9292 H   0  0  0  0  0  0  0  0  0  0  0  0
    0.2143    3.3681    2.5544 H   0  0  0  0  0  0  0  0  0  0  0  0
    5.4963   -2.2514   -1.4861 H   0  0  0  0  0  0  0  0  0  0  0  0
  1  2  1  0
  2  3  1  0
  3  4  2  0
  4  5  1  0
  5  6  2  0
  6  7  1  0
  7  8  2  0
  7  9  1  0
  9 10  1  0
 10 11  1  0
 11 12  1  0
 12 13  1  0
 13 14  2  0
 14 15  1  0
 15 16  2  0
 16 17  1  0
 17 18  1  0
 16 19  1  0
 19 20  1  0
 14 21  1  0
 21 22  2  0
 22 23  1  0
 23 24  2  0
 23 25  1  0
 10 26  1  0
 26 27  1  0
  4 28  1  0
  8  3  1  0
 18  9  1  0
 17 12  2  0
 25 13  1  0
  1 29  1  0
  1 30  1  0
  1 31  1  0
  5 32  1  0
  6 33  1  0
  8 34  1  0
  9 35  1  0
 10 36  1  0
 15 37  1  0
 20 38  1  0
 20 39  1  0
 20 40  1  0
 21 41  1  0
 22 42  1  0
 26 43  1  0
 26 44  1  0
 27 45  1  0
 28 46  1  0
M  END
>  <Name>  (704) 
(Cleosandrin) Cleomiscosin A

>  <PubChem ID>  (704) 
442510

>  <CDB ID>  (704) 
CDB0704

>  <Smiles>  (704) 
COC1=C(C=CC(=C1)C2C(OC3=C4C(=CC(=C3O2)OC)C=CC(=O)O4)CO)O

>  <Chemical class>  (704) 
6,7,8-Trioxygenated Coumarins

>  <Natural source>  (704) 
Cleome icosandra, Cleome viscosa

>  <Molecular Formula>  (704) 
C20H18O8

>  <InChI-Key>  (704) 
OCBGWPJNUZMLCA-UHFFFAOYSA-N

>  <Total Molweight>  (704) 
386.355

>  <cLogP>  (704) 
1.9047

>  <cLogS>  (704) 
-3.257

>  <H-Acceptors>  (704) 
8

>  <H-Donors>  (704) 
2

>  <Rotatable Bonds>  (704) 
4

>  <Polar Surface Area>  (704) 
103.68

$$$$
CDB0705
     RDKit          3D

 50 53  0  0  0  0  0  0  0  0999 V2000
   -3.1610    0.5209   -3.8914 C   0  0  0  0  0  0  0  0  0  0  0  0
   -4.1328    0.3029   -2.8791 O   0  0  0  0  0  0  0  0  0  0  0  0
   -3.6806    0.0344   -1.6149 C   0  0  0  0  0  0  0  0  0  0  0  0
   -2.3375    0.0095   -1.2294 C   0  0  0  0  0  0  0  0  0  0  0  0
   -1.9668   -0.2767    0.0994 C   0  0  0  0  0  0  0  0  0  0  0  0
   -2.9729   -0.5418    1.0486 C   0  0  0  0  0  0  0  0  0  0  0  0
   -4.3180   -0.5167    0.6818 C   0  0  0  0  0  0  0  0  0  0  0  0
   -4.6561   -0.2283   -0.6477 C   0  0  0  0  0  0  0  0  0  0  0  0
   -5.9854   -0.2068   -0.9997 O   0  0  0  0  0  0  0  0  0  0  0  0
   -5.3850   -0.7536    1.5119 O   0  0  0  0  0  0  0  0  0  0  0  0
   -5.0910   -1.0236    2.8775 C   0  0  0  0  0  0  0  0  0  0  0  0
   -0.5082   -0.2954    0.5351 C   0  0  0  0  0  0  0  0  0  0  0  0
   -0.1155    0.9224    1.3848 C   0  0  0  0  0  0  0  0  0  0  0  0
    1.2307    0.7639    1.8872 O   0  0  0  0  0  0  0  0  0  0  0  0
    2.0988    0.2241    0.9723 C   0  0  0  0  0  0  0  0  0  0  0  0
    3.4591    0.2487    1.2786 C   0  0  0  0  0  0  0  0  0  0  0  0
    4.4116   -0.2501    0.3917 C   0  0  0  0  0  0  0  0  0  0  0  0
    3.9950   -0.7846   -0.8332 C   0  0  0  0  0  0  0  0  0  0  0  0
    2.6336   -0.8274   -1.1602 C   0  0  0  0  0  0  0  0  0  0  0  0
    1.6875   -0.3345   -0.2426 C   0  0  0  0  0  0  0  0  0  0  0  0
    0.3607   -0.4027   -0.6012 O   0  0  0  0  0  0  0  0  0  0  0  0
    2.1252   -1.3304   -2.3302 O   0  0  0  0  0  0  0  0  0  0  0  0
    3.0441   -1.8456   -3.2839 C   0  0  0  0  0  0  0  0  0  0  0  0
    5.8179   -0.1950    0.7616 C   0  0  0  0  0  0  0  0  0  0  0  0
    6.1717    0.3324    1.9374 C   0  0  0  0  0  0  0  0  0  0  0  0
    5.1870    0.8709    2.8911 C   0  0  0  0  0  0  0  0  0  0  0  0
    5.5479    1.3484    3.9600 O   0  0  0  0  0  0  0  0  0  0  0  0
    3.8544    0.8081    2.5136 O   0  0  0  0  0  0  0  0  0  0  0  0
   -0.2145    2.2733    0.6588 C   0  0  0  0  0  0  0  0  0  0  0  0
    0.1055    3.3341    1.5641 O   0  0  0  0  0  0  0  0  0  0  0  0
   -3.6915    0.6927   -4.8330 H   0  0  0  0  0  0  0  0  0  0  0  0
   -2.5640    1.4138   -3.6792 H   0  0  0  0  0  0  0  0  0  0  0  0
   -2.5237   -0.3595   -4.0252 H   0  0  0  0  0  0  0  0  0  0  0  0
   -1.5548    0.2112   -1.9551 H   0  0  0  0  0  0  0  0  0  0  0  0
   -2.6789   -0.7689    2.0690 H   0  0  0  0  0  0  0  0  0  0  0  0
   -6.4709   -0.4138   -0.1797 H   0  0  0  0  0  0  0  0  0  0  0  0
   -6.0406   -1.1740    3.4000 H   0  0  0  0  0  0  0  0  0  0  0  0
   -4.5052   -1.9429    2.9798 H   0  0  0  0  0  0  0  0  0  0  0  0
   -4.5830   -0.1749    3.3472 H   0  0  0  0  0  0  0  0  0  0  0  0
   -0.3638   -1.2156    1.1215 H   0  0  0  0  0  0  0  0  0  0  0  0
   -0.7491    0.9706    2.2791 H   0  0  0  0  0  0  0  0  0  0  0  0
    4.7464   -1.1636   -1.5186 H   0  0  0  0  0  0  0  0  0  0  0  0
    3.5957   -2.7001   -2.8785 H   0  0  0  0  0  0  0  0  0  0  0  0
    2.4692   -2.1991   -4.1453 H   0  0  0  0  0  0  0  0  0  0  0  0
    3.7258   -1.0647   -3.6366 H   0  0  0  0  0  0  0  0  0  0  0  0
    6.5642   -0.5837    0.0772 H   0  0  0  0  0  0  0  0  0  0  0  0
    7.2076    0.3915    2.2491 H   0  0  0  0  0  0  0  0  0  0  0  0
    0.4822    2.3464   -0.1816 H   0  0  0  0  0  0  0  0  0  0  0  0
   -1.2264    2.4568    0.2878 H   0  0  0  0  0  0  0  0  0  0  0  0
    0.9560    3.0966    1.9804 H   0  0  0  0  0  0  0  0  0  0  0  0
  1  2  1  0
  2  3  1  0
  3  4  2  0
  4  5  1  0
  5  6  2  0
  6  7  1  0
  7  8  2  0
  8  9  1  0
  7 10  1  0
 10 11  1  0
  5 12  1  0
 12 13  1  0
 13 14  1  0
 14 15  1  0
 15 16  1  0
 16 17  2  0
 17 18  1  0
 18 19  2  0
 19 20  1  0
 20 21  1  0
 19 22  1  0
 22 23  1  0
 17 24  1  0
 24 25  2  0
 25 26  1  0
 26 27  2  0
 26 28  1  0
 13 29  1  0
 29 30  1  0
  8  3  1  0
 21 12  1  0
 20 15  2  0
 28 16  1  0
  1 31  1  0
  1 32  1  0
  1 33  1  0
  4 34  1  0
  6 35  1  0
  9 36  1  0
 11 37  1  0
 11 38  1  0
 11 39  1  0
 12 40  1  0
 13 41  1  0
 18 42  1  0
 23 43  1  0
 23 44  1  0
 23 45  1  0
 24 46  1  0
 25 47  1  0
 29 48  1  0
 29 49  1  0
 30 50  1  0
M  END
>  <Name>  (705) 
Cleomiscosin C (Aquillochin)

>  <PubChem ID>  (705) 
11464176

>  <CDB ID>  (705) 
CDB0705

>  <Smiles>  (705) 
COC1=CC(=CC(=C1O)OC)C2C(OC3=C4C(=CC(=C3O2)OC)C=CC(=O)O4)CO

>  <Chemical class>  (705) 
6,7,8-Trioxygenated Coumarins

>  <Natural source>  (705) 
Aquilaria agallocha, Cleome viscosa

>  <Molecular Formula>  (705) 
C21H20O9

>  <InChI-Key>  (705) 
GZXPCBAETDEQAX-UHFFFAOYSA-N

>  <Total Molweight>  (705) 
416.381

>  <cLogP>  (705) 
1.8347

>  <cLogS>  (705) 
-3.275

>  <H-Acceptors>  (705) 
9

>  <H-Donors>  (705) 
2

>  <Rotatable Bonds>  (705) 
5

>  <Polar Surface Area>  (705) 
112.91

$$$$
CDB0706
     RDKit          3D

 47 49  0  0  0  0  0  0  0  0999 V2000
    0.4371   -3.1345   -0.9276 C   0  0  0  0  0  0  0  0  0  0  0  0
    0.3770   -1.8994   -1.6426 O   0  0  0  0  0  0  0  0  0  0  0  0
    1.3419   -1.0291   -1.2049 C   0  0  0  0  0  0  0  0  0  0  0  0
    0.9538    0.1548   -0.5676 C   0  0  0  0  0  0  0  0  0  0  0  0
    1.9207    1.0842   -0.1762 C   0  0  0  0  0  0  0  0  0  0  0  0
    3.2705    0.7977   -0.3905 C   0  0  0  0  0  0  0  0  0  0  0  0
    3.6680   -0.3784   -1.0289 C   0  0  0  0  0  0  0  0  0  0  0  0
    2.6951   -1.2905   -1.4487 C   0  0  0  0  0  0  0  0  0  0  0  0
    5.0856   -0.6202   -1.2455 C   0  0  0  0  0  0  0  0  0  0  0  0
    5.9795    0.2814   -0.8287 C   0  0  0  0  0  0  0  0  0  0  0  0
    5.5882    1.5303   -0.1524 C   0  0  0  0  0  0  0  0  0  0  0  0
    6.4369    2.3387    0.2048 O   0  0  0  0  0  0  0  0  0  0  0  0
    4.2313    1.7358    0.0441 O   0  0  0  0  0  0  0  0  0  0  0  0
    1.5461    2.2269    0.4800 O   0  0  0  0  0  0  0  0  0  0  0  0
    1.3682    3.2934   -0.4523 C   0  0  0  0  0  0  0  0  0  0  0  0
   -0.3757    0.4290   -0.3810 O   0  0  0  0  0  0  0  0  0  0  0  0
   -0.8061    0.0367    0.9372 C   0  0  0  0  0  0  0  0  0  0  0  0
   -1.6355    1.1873    1.5606 C   0  0  0  0  0  0  0  0  0  0  0  0
   -3.1374    0.9931    1.3161 C   0  0  0  0  0  0  0  0  0  0  0  0
   -3.3690    0.3136   -0.0307 C   0  0  0  0  0  0  0  0  0  0  0  0
   -2.7191   -1.0889   -0.0158 C   0  0  0  0  0  0  0  0  0  0  0  0
   -1.5740   -1.1729    0.8580 O   0  0  0  0  0  0  0  0  0  0  0  0
   -3.6747   -2.2251    0.3849 C   0  0  0  0  0  0  0  0  0  0  0  0
   -4.2261   -2.0137    1.6811 O   0  0  0  0  0  0  0  0  0  0  0  0
   -4.7648    0.3154   -0.3521 O   0  0  0  0  0  0  0  0  0  0  0  0
   -3.7907    2.2751    1.3427 O   0  0  0  0  0  0  0  0  0  0  0  0
   -1.4214    1.2844    2.9814 O   0  0  0  0  0  0  0  0  0  0  0  0
    0.5594   -2.9793    0.1505 H   0  0  0  0  0  0  0  0  0  0  0  0
    1.2435   -3.7649   -1.3158 H   0  0  0  0  0  0  0  0  0  0  0  0
   -0.5091   -3.6598   -1.0885 H   0  0  0  0  0  0  0  0  0  0  0  0
    2.9808   -2.1974   -1.9743 H   0  0  0  0  0  0  0  0  0  0  0  0
    5.3999   -1.5317   -1.7422 H   0  0  0  0  0  0  0  0  0  0  0  0
    7.0440    0.1384   -0.9701 H   0  0  0  0  0  0  0  0  0  0  0  0
    1.0576    4.1797    0.1090 H   0  0  0  0  0  0  0  0  0  0  0  0
    0.5811    3.0592   -1.1774 H   0  0  0  0  0  0  0  0  0  0  0  0
    2.3037    3.5308   -0.9702 H   0  0  0  0  0  0  0  0  0  0  0  0
    0.0460   -0.1787    1.5962 H   0  0  0  0  0  0  0  0  0  0  0  0
   -1.3012    2.1464    1.1468 H   0  0  0  0  0  0  0  0  0  0  0  0
   -3.5957    0.4208    2.1299 H   0  0  0  0  0  0  0  0  0  0  0  0
   -2.8950    0.9289   -0.8063 H   0  0  0  0  0  0  0  0  0  0  0  0
   -2.3721   -1.3143   -1.0319 H   0  0  0  0  0  0  0  0  0  0  0  0
   -4.4979   -2.3155   -0.3306 H   0  0  0  0  0  0  0  0  0  0  0  0
   -3.1290   -3.1746    0.4126 H   0  0  0  0  0  0  0  0  0  0  0  0
   -4.7462   -2.8034    1.9062 H   0  0  0  0  0  0  0  0  0  0  0  0
   -4.8509    0.0196   -1.2751 H   0  0  0  0  0  0  0  0  0  0  0  0
   -4.6882    2.0934    0.9959 H   0  0  0  0  0  0  0  0  0  0  0  0
   -2.0360    1.9772    3.2898 H   0  0  0  0  0  0  0  0  0  0  0  0
  1  2  1  0
  2  3  1  0
  3  4  1  0
  4  5  2  0
  5  6  1  0
  6  7  2  0
  7  8  1  0
  7  9  1  0
  9 10  2  0
 10 11  1  0
 11 12  2  0
 11 13  1  0
  5 14  1  0
 14 15  1  0
  4 16  1  0
 16 17  1  0
 17 18  1  0
 18 19  1  0
 19 20  1  0
 20 21  1  0
 21 22  1  0
 21 23  1  0
 23 24  1  0
 20 25  1  0
 19 26  1  0
 18 27  1  0
  8  3  2  0
 13  6  1  0
 22 17  1  0
  1 28  1  0
  1 29  1  0
  1 30  1  0
  8 31  1  0
  9 32  1  0
 10 33  1  0
 15 34  1  0
 15 35  1  0
 15 36  1  0
 17 37  1  0
 18 38  1  0
 19 39  1  0
 20 40  1  0
 21 41  1  0
 23 42  1  0
 23 43  1  0
 24 44  1  0
 25 45  1  0
 26 46  1  0
 27 47  1  0
M  END
>  <Name>  (706) 
Eleutheroside B1

>  <PubChem ID>  (706) 
12302278

>  <CDB ID>  (706) 
CDB0706

>  <Smiles>  (706) 
COC1=C(C(=C2C(=C1)C=CC(=O)O2)OC)OC3C(C(C(C(O3)CO)O)O)O

>  <Chemical class>  (706) 
6,7,8-Trioxygenated Coumarins

>  <Natural source>  (706) 
Elutherococcus senticosus

>  <Molecular Formula>  (706) 
C17H20O10

>  <InChI-Key>  (706) 
IKUQEFGEUOOPGY-UHFFFAOYSA-N

>  <Total Molweight>  (706) 
384.336

>  <cLogP>  (706) 
-0.9776

>  <cLogS>  (706) 
-1.996

>  <H-Acceptors>  (706) 
10

>  <H-Donors>  (706) 
4

>  <Rotatable Bonds>  (706) 
5

>  <Polar Surface Area>  (706) 
144.14

$$$$
CDB0707
     RDKit          3D

 44 46  0  0  0  0  0  0  0  0999 V2000
   -1.2959    3.3551   -0.8271 C   0  0  0  0  0  0  0  0  0  0  0  0
   -0.7242    2.0682   -0.6288 O   0  0  0  0  0  0  0  0  0  0  0  0
   -1.5788    1.0377   -0.3317 C   0  0  0  0  0  0  0  0  0  0  0  0
   -1.0224   -0.2526   -0.3621 C   0  0  0  0  0  0  0  0  0  0  0  0
   -1.8024   -1.3739   -0.0757 C   0  0  0  0  0  0  0  0  0  0  0  0
   -3.1404   -1.2015    0.2610 C   0  0  0  0  0  0  0  0  0  0  0  0
   -3.7138    0.0672    0.3137 C   0  0  0  0  0  0  0  0  0  0  0  0
   -2.9277    1.1895    0.0178 C   0  0  0  0  0  0  0  0  0  0  0  0
   -5.1173    0.1862    0.6777 C   0  0  0  0  0  0  0  0  0  0  0  0
   -5.8244   -0.9154    0.9484 C   0  0  0  0  0  0  0  0  0  0  0  0
   -5.2379   -2.2655    0.8941 C   0  0  0  0  0  0  0  0  0  0  0  0
   -5.9133   -3.2559    1.1447 O   0  0  0  0  0  0  0  0  0  0  0  0
   -3.8961   -2.3556    0.5482 O   0  0  0  0  0  0  0  0  0  0  0  0
   -1.2450   -2.6257   -0.1181 O   0  0  0  0  0  0  0  0  0  0  0  0
    0.2824   -0.4128   -0.7511 O   0  0  0  0  0  0  0  0  0  0  0  0
    1.1377   -0.6311    0.3808 C   0  0  0  0  0  0  0  0  0  0  0  0
    2.1098   -1.7839    0.0211 C   0  0  0  0  0  0  0  0  0  0  0  0
    3.4915   -1.4852    0.6168 C   0  0  0  0  0  0  0  0  0  0  0  0
    4.0305   -0.1525    0.0552 C   0  0  0  0  0  0  0  0  0  0  0  0
    2.9019    0.8729   -0.1358 C   0  0  0  0  0  0  0  0  0  0  0  0
    1.8106    0.5841    0.7432 O   0  0  0  0  0  0  0  0  0  0  0  0
    3.3647    2.2971    0.1807 C   0  0  0  0  0  0  0  0  0  0  0  0
    2.3083    3.2182   -0.0984 O   0  0  0  0  0  0  0  0  0  0  0  0
    4.6536   -0.4183   -1.2174 O   0  0  0  0  0  0  0  0  0  0  0  0
    4.4368   -2.5242    0.3225 O   0  0  0  0  0  0  0  0  0  0  0  0
    1.5861   -3.0302    0.5115 O   0  0  0  0  0  0  0  0  0  0  0  0
   -0.5013    4.0253   -1.1688 H   0  0  0  0  0  0  0  0  0  0  0  0
   -1.6884    3.7560    0.1128 H   0  0  0  0  0  0  0  0  0  0  0  0
   -2.0693    3.3327   -1.6020 H   0  0  0  0  0  0  0  0  0  0  0  0
   -3.3822    2.1739    0.0693 H   0  0  0  0  0  0  0  0  0  0  0  0
   -5.5735    1.1692    0.7246 H   0  0  0  0  0  0  0  0  0  0  0  0
   -6.8716   -0.8688    1.2227 H   0  0  0  0  0  0  0  0  0  0  0  0
   -1.9668   -3.2597    0.0650 H   0  0  0  0  0  0  0  0  0  0  0  0
    0.5605   -0.9243    1.2686 H   0  0  0  0  0  0  0  0  0  0  0  0
    2.1949   -1.9072   -1.0657 H   0  0  0  0  0  0  0  0  0  0  0  0
    3.4075   -1.4341    1.7089 H   0  0  0  0  0  0  0  0  0  0  0  0
    4.8200    0.2140    0.7214 H   0  0  0  0  0  0  0  0  0  0  0  0
    2.5310    0.8653   -1.1698 H   0  0  0  0  0  0  0  0  0  0  0  0
    4.2311    2.5808   -0.4238 H   0  0  0  0  0  0  0  0  0  0  0  0
    3.6175    2.4041    1.2406 H   0  0  0  0  0  0  0  0  0  0  0  0
    1.4820    2.7681    0.1756 H   0  0  0  0  0  0  0  0  0  0  0  0
    5.1334    0.3857   -1.4876 H   0  0  0  0  0  0  0  0  0  0  0  0
    4.7170   -2.3616   -0.6005 H   0  0  0  0  0  0  0  0  0  0  0  0
    0.6841   -3.1112    0.1384 H   0  0  0  0  0  0  0  0  0  0  0  0
  1  2  1  0
  2  3  1  0
  3  4  1  0
  4  5  2  0
  5  6  1  0
  6  7  2  0
  7  8  1  0
  7  9  1  0
  9 10  2  0
 10 11  1  0
 11 12  2  0
 11 13  1  0
  5 14  1  0
  4 15  1  0
 15 16  1  0
 16 17  1  0
 17 18  1  0
 18 19  1  0
 19 20  1  0
 20 21  1  0
 20 22  1  0
 22 23  1  0
 19 24  1  0
 18 25  1  0
 17 26  1  0
  8  3  2  0
 13  6  1  0
 21 16  1  0
  1 27  1  0
  1 28  1  0
  1 29  1  0
  8 30  1  0
  9 31  1  0
 10 32  1  0
 14 33  1  0
 16 34  1  0
 17 35  1  0
 18 36  1  0
 19 37  1  0
 20 38  1  0
 22 39  1  0
 22 40  1  0
 23 41  1  0
 24 42  1  0
 25 43  1  0
 26 44  1  0
M  END
>  <Name>  (707) 
Isofraxoside

>  <PubChem ID>  (707) 
11508953

>  <CDB ID>  (707) 
CDB0707

>  <Smiles>  (707) 
COC1=C(C(=C2C(=C1)C=CC(=O)O2)O)OC3C(C(C(C(O3)CO)O)O)O

>  <Chemical class>  (707) 
6,7,8-Trioxygenated Coumarins

>  <Natural source>  (707) 
Poliothyris sinensis, Haplophyllum obtusifolium

>  <Molecular Formula>  (707) 
C16H18O10

>  <InChI-Key>  (707) 
RVWWDDKOKZXKCJ-UHFFFAOYSA-N

>  <Total Molweight>  (707) 
370.309

>  <cLogP>  (707) 
-1.2533

>  <cLogS>  (707) 
-1.682

>  <H-Acceptors>  (707) 
10

>  <H-Donors>  (707) 
5

>  <Rotatable Bonds>  (707) 
4

>  <Polar Surface Area>  (707) 
155.14

$$$$
CDB0708
     RDKit          3D

 47 49  0  0  0  0  0  0  0  0999 V2000
    0.4371   -3.1345   -0.9276 C   0  0  0  0  0  0  0  0  0  0  0  0
    0.3770   -1.8994   -1.6426 O   0  0  0  0  0  0  0  0  0  0  0  0
    1.3419   -1.0291   -1.2049 C   0  0  0  0  0  0  0  0  0  0  0  0
    0.9538    0.1548   -0.5676 C   0  0  0  0  0  0  0  0  0  0  0  0
    1.9207    1.0842   -0.1762 C   0  0  0  0  0  0  0  0  0  0  0  0
    3.2705    0.7977   -0.3905 C   0  0  0  0  0  0  0  0  0  0  0  0
    3.6680   -0.3784   -1.0289 C   0  0  0  0  0  0  0  0  0  0  0  0
    2.6951   -1.2905   -1.4487 C   0  0  0  0  0  0  0  0  0  0  0  0
    5.0856   -0.6202   -1.2455 C   0  0  0  0  0  0  0  0  0  0  0  0
    5.9795    0.2814   -0.8287 C   0  0  0  0  0  0  0  0  0  0  0  0
    5.5882    1.5303   -0.1524 C   0  0  0  0  0  0  0  0  0  0  0  0
    6.4369    2.3387    0.2048 O   0  0  0  0  0  0  0  0  0  0  0  0
    4.2313    1.7358    0.0441 O   0  0  0  0  0  0  0  0  0  0  0  0
    1.5461    2.2269    0.4800 O   0  0  0  0  0  0  0  0  0  0  0  0
    1.3682    3.2934   -0.4523 C   0  0  0  0  0  0  0  0  0  0  0  0
   -0.3757    0.4290   -0.3810 O   0  0  0  0  0  0  0  0  0  0  0  0
   -0.8061    0.0367    0.9372 C   0  0  0  0  0  0  0  0  0  0  0  0
   -1.6355    1.1873    1.5606 C   0  0  0  0  0  0  0  0  0  0  0  0
   -3.1374    0.9931    1.3161 C   0  0  0  0  0  0  0  0  0  0  0  0
   -3.3690    0.3136   -0.0307 C   0  0  0  0  0  0  0  0  0  0  0  0
   -2.7191   -1.0889   -0.0158 C   0  0  0  0  0  0  0  0  0  0  0  0
   -1.5740   -1.1729    0.8580 O   0  0  0  0  0  0  0  0  0  0  0  0
   -3.6747   -2.2251    0.3849 C   0  0  0  0  0  0  0  0  0  0  0  0
   -4.2261   -2.0137    1.6811 O   0  0  0  0  0  0  0  0  0  0  0  0
   -4.7648    0.3154   -0.3521 O   0  0  0  0  0  0  0  0  0  0  0  0
   -3.7907    2.2751    1.3427 O   0  0  0  0  0  0  0  0  0  0  0  0
   -1.4214    1.2844    2.9814 O   0  0  0  0  0  0  0  0  0  0  0  0
    0.5594   -2.9793    0.1505 H   0  0  0  0  0  0  0  0  0  0  0  0
    1.2435   -3.7649   -1.3158 H   0  0  0  0  0  0  0  0  0  0  0  0
   -0.5091   -3.6598   -1.0885 H   0  0  0  0  0  0  0  0  0  0  0  0
    2.9808   -2.1974   -1.9743 H   0  0  0  0  0  0  0  0  0  0  0  0
    5.3999   -1.5317   -1.7422 H   0  0  0  0  0  0  0  0  0  0  0  0
    7.0440    0.1384   -0.9701 H   0  0  0  0  0  0  0  0  0  0  0  0
    1.0576    4.1797    0.1090 H   0  0  0  0  0  0  0  0  0  0  0  0
    0.5811    3.0592   -1.1774 H   0  0  0  0  0  0  0  0  0  0  0  0
    2.3037    3.5308   -0.9702 H   0  0  0  0  0  0  0  0  0  0  0  0
    0.0460   -0.1787    1.5962 H   0  0  0  0  0  0  0  0  0  0  0  0
   -1.3012    2.1464    1.1468 H   0  0  0  0  0  0  0  0  0  0  0  0
   -3.5957    0.4208    2.1299 H   0  0  0  0  0  0  0  0  0  0  0  0
   -2.8950    0.9289   -0.8063 H   0  0  0  0  0  0  0  0  0  0  0  0
   -2.3721   -1.3143   -1.0319 H   0  0  0  0  0  0  0  0  0  0  0  0
   -4.4979   -2.3155   -0.3306 H   0  0  0  0  0  0  0  0  0  0  0  0
   -3.1290   -3.1746    0.4126 H   0  0  0  0  0  0  0  0  0  0  0  0
   -4.7462   -2.8034    1.9062 H   0  0  0  0  0  0  0  0  0  0  0  0
   -4.8509    0.0196   -1.2751 H   0  0  0  0  0  0  0  0  0  0  0  0
   -4.6882    2.0934    0.9959 H   0  0  0  0  0  0  0  0  0  0  0  0
   -2.0360    1.9772    3.2898 H   0  0  0  0  0  0  0  0  0  0  0  0
  1  2  1  0
  2  3  1  0
  3  4  1  0
  4  5  2  0
  5  6  1  0
  6  7  2  0
  7  8  1  0
  7  9  1  0
  9 10  2  0
 10 11  1  0
 11 12  2  0
 11 13  1  0
  5 14  1  0
 14 15  1  0
  4 16  1  0
 16 17  1  0
 17 18  1  0
 18 19  1  0
 19 20  1  0
 20 21  1  0
 21 22  1  0
 21 23  1  0
 23 24  1  0
 20 25  1  0
 19 26  1  0
 18 27  1  0
  8  3  2  0
 13  6  1  0
 22 17  1  0
  1 28  1  0
  1 29  1  0
  1 30  1  0
  8 31  1  0
  9 32  1  0
 10 33  1  0
 15 34  1  0
 15 35  1  0
 15 36  1  0
 17 37  1  0
 18 38  1  0
 19 39  1  0
 20 40  1  0
 21 41  1  0
 23 42  1  0
 23 43  1  0
 24 44  1  0
 25 45  1  0
 26 46  1  0
 27 47  1  0
M  END
>  <Name>  (708) 
Calycanthoside

>  <PubChem ID>  (708) 
5318566

>  <CDB ID>  (708) 
CDB0708

>  <Smiles>  (708) 
COC1=C(C(=C2C(=C1)C=CC(=O)O2)OC)OC3C(C(C(C(O3)CO)O)O)O

>  <Chemical class>  (708) 
6,7,8-Trioxygenated Coumarins

>  <Natural source>  (708) 
Calycanthus occidentalis

>  <Molecular Formula>  (708) 
C17H20O10

>  <InChI-Key>  (708) 
IKUQEFGEUOOPGY-UHFFFAOYSA-N

>  <Total Molweight>  (708) 
384.336

>  <cLogP>  (708) 
-0.9776

>  <cLogS>  (708) 
-1.996

>  <H-Acceptors>  (708) 
10

>  <H-Donors>  (708) 
4

>  <Rotatable Bonds>  (708) 
5

>  <Polar Surface Area>  (708) 
144.14

$$$$
CDB0709
     RDKit          3D

 36 37  0  0  0  0  0  0  0  0999 V2000
   -3.7573   -0.7418    0.5785 C   0  0  0  0  0  0  0  0  0  0  0  0
   -2.8352   -0.0284   -0.4396 C   0  0  0  0  0  0  0  0  0  0  0  0
   -3.3531   -0.3180   -1.8669 C   0  0  0  0  0  0  0  0  0  0  0  0
   -2.9695    1.4676   -0.0899 C   0  0  0  0  0  0  0  0  0  0  0  0
   -3.2856    2.4878   -0.9015 C   0  0  0  0  0  0  0  0  0  0  0  0
   -1.3673   -0.5071   -0.3172 C   0  0  0  0  0  0  0  0  0  0  0  0
   -0.3179    0.3249   -0.1611 C   0  0  0  0  0  0  0  0  0  0  0  0
    1.0498   -0.1562   -0.0452 C   0  0  0  0  0  0  0  0  0  0  0  0
    2.1352    0.7158    0.1194 C   0  0  0  0  0  0  0  0  0  0  0  0
    3.4336    0.2060    0.2329 C   0  0  0  0  0  0  0  0  0  0  0  0
    3.6339   -1.1827    0.1808 C   0  0  0  0  0  0  0  0  0  0  0  0
    2.5604   -2.0510    0.0170 C   0  0  0  0  0  0  0  0  0  0  0  0
    1.2777   -1.5231   -0.0944 C   0  0  0  0  0  0  0  0  0  0  0  0
    0.2086   -2.4157   -0.2644 O   0  0  0  0  0  0  0  0  0  0  0  0
   -1.1055   -1.9801   -0.4063 C   0  0  0  0  0  0  0  0  0  0  0  0
   -1.9939   -2.8014   -0.5994 O   0  0  0  0  0  0  0  0  0  0  0  0
    2.7644   -3.4013   -0.0348 O   0  0  0  0  0  0  0  0  0  0  0  0
    4.9056   -1.6825    0.2926 O   0  0  0  0  0  0  0  0  0  0  0  0
    4.5775    0.9467    0.3970 O   0  0  0  0  0  0  0  0  0  0  0  0
    4.4274    2.3607    0.4488 C   0  0  0  0  0  0  0  0  0  0  0  0
   -4.7474   -0.2691    0.6175 H   0  0  0  0  0  0  0  0  0  0  0  0
   -3.3367   -0.7096    1.5911 H   0  0  0  0  0  0  0  0  0  0  0  0
   -3.9341   -1.7915    0.3265 H   0  0  0  0  0  0  0  0  0  0  0  0
   -2.7152    0.1472   -2.6281 H   0  0  0  0  0  0  0  0  0  0  0  0
   -4.3743    0.0574   -2.0059 H   0  0  0  0  0  0  0  0  0  0  0  0
   -3.3866   -1.3900   -2.0868 H   0  0  0  0  0  0  0  0  0  0  0  0
   -2.7862    1.7132    0.9583 H   0  0  0  0  0  0  0  0  0  0  0  0
   -3.4884    2.3591   -1.9593 H   0  0  0  0  0  0  0  0  0  0  0  0
   -3.3523    3.5000   -0.5121 H   0  0  0  0  0  0  0  0  0  0  0  0
   -0.4480    1.4014   -0.1180 H   0  0  0  0  0  0  0  0  0  0  0  0
    1.9476    1.7838    0.1571 H   0  0  0  0  0  0  0  0  0  0  0  0
    1.8959   -3.8236   -0.1575 H   0  0  0  0  0  0  0  0  0  0  0  0
    5.4843   -0.9046    0.3966 H   0  0  0  0  0  0  0  0  0  0  0  0
    5.4224    2.7975    0.5778 H   0  0  0  0  0  0  0  0  0  0  0  0
    4.0123    2.7477   -0.4876 H   0  0  0  0  0  0  0  0  0  0  0  0
    3.8177    2.6610    1.3073 H   0  0  0  0  0  0  0  0  0  0  0  0
  1  2  1  0
  2  3  1  0
  2  4  1  0
  4  5  2  0
  2  6  1  0
  6  7  2  0
  7  8  1  0
  8  9  1  0
  9 10  2  0
 10 11  1  0
 11 12  2  0
 12 13  1  0
 13 14  1  0
 14 15  1  0
 15 16  2  0
 12 17  1  0
 11 18  1  0
 10 19  1  0
 19 20  1  0
 15  6  1  0
 13  8  2  0
  1 21  1  0
  1 22  1  0
  1 23  1  0
  3 24  1  0
  3 25  1  0
  3 26  1  0
  4 27  1  0
  5 28  1  0
  5 29  1  0
  7 30  1  0
  9 31  1  0
 17 32  1  0
 18 33  1  0
 20 34  1  0
 20 35  1  0
 20 36  1  0
M  END
>  <Name>  (709) 
Obtusidin

>  <PubChem ID>  (709) 
5416980

>  <CDB ID>  (709) 
CDB0709

>  <Smiles>  (709) 
CC(C)(C=C)C1=CC2=CC(=C(C(=C2OC1=O)O)O)OC

>  <Chemical class>  (709) 
6,7,8-Trioxygenated Coumarins

>  <Natural source>  (709) 
Haplophyllum obtusifoliumbtusifolium

>  <Molecular Formula>  (709) 
C15H16O5

>  <InChI-Key>  (709) 
DKHNSBVDPXUWGV-UHFFFAOYSA-N

>  <Total Molweight>  (709) 
276.287

>  <cLogP>  (709) 
2.6836

>  <cLogS>  (709) 
-2.736

>  <H-Acceptors>  (709) 
5

>  <H-Donors>  (709) 
2

>  <Rotatable Bonds>  (709) 
3

>  <Polar Surface Area>  (709) 
75.99

$$$$
CDB0710
     RDKit          3D

 36 38  0  0  0  0  0  0  0  0999 V2000
   -3.8251   -2.7474   -0.0100 C   0  0  0  0  0  0  0  0  0  0  0  0
   -3.4679   -1.8458   -1.0567 O   0  0  0  0  0  0  0  0  0  0  0  0
   -2.3340   -1.1565   -0.7090 C   0  0  0  0  0  0  0  0  0  0  0  0
   -1.0738   -1.6634   -1.0391 C   0  0  0  0  0  0  0  0  0  0  0  0
    0.0857   -0.9544   -0.7147 C   0  0  0  0  0  0  0  0  0  0  0  0
   -0.0032    0.2820   -0.0570 C   0  0  0  0  0  0  0  0  0  0  0  0
    1.1892    1.0598    0.3147 C   0  0  0  0  0  0  0  0  0  0  0  0
    1.0081    2.2341    0.9388 C   0  0  0  0  0  0  0  0  0  0  0  0
   -0.3156    2.7815    1.2663 C   0  0  0  0  0  0  0  0  0  0  0  0
   -0.4194    3.8652    1.8292 O   0  0  0  0  0  0  0  0  0  0  0  0
   -1.4138    2.0237    0.9071 O   0  0  0  0  0  0  0  0  0  0  0  0
   -1.2694    0.7840    0.2515 C   0  0  0  0  0  0  0  0  0  0  0  0
   -2.4352    0.0887   -0.0850 C   0  0  0  0  0  0  0  0  0  0  0  0
   -3.6549    0.6029    0.2737 O   0  0  0  0  0  0  0  0  0  0  0  0
   -4.2587    1.2586   -0.8414 C   0  0  0  0  0  0  0  0  0  0  0  0
    2.5883    0.6648    0.0648 C   0  0  0  0  0  0  0  0  0  0  0  0
    3.2288    1.0482   -1.1203 C   0  0  0  0  0  0  0  0  0  0  0  0
    4.5512    0.6692   -1.3569 C   0  0  0  0  0  0  0  0  0  0  0  0
    5.2388   -0.0924   -0.4125 C   0  0  0  0  0  0  0  0  0  0  0  0
    4.6070   -0.4763    0.7698 C   0  0  0  0  0  0  0  0  0  0  0  0
    3.2847   -0.0991    1.0098 C   0  0  0  0  0  0  0  0  0  0  0  0
   -0.9849   -2.8708   -1.6759 O   0  0  0  0  0  0  0  0  0  0  0  0
   -4.7381   -3.2679   -0.3143 H   0  0  0  0  0  0  0  0  0  0  0  0
   -3.0459   -3.4999    0.1529 H   0  0  0  0  0  0  0  0  0  0  0  0
   -4.0367   -2.2118    0.9221 H   0  0  0  0  0  0  0  0  0  0  0  0
    1.0582   -1.3670   -0.9694 H   0  0  0  0  0  0  0  0  0  0  0  0
    1.8390    2.8623    1.2440 H   0  0  0  0  0  0  0  0  0  0  0  0
   -4.5253    0.5458   -1.6284 H   0  0  0  0  0  0  0  0  0  0  0  0
   -3.6072    2.0428   -1.2433 H   0  0  0  0  0  0  0  0  0  0  0  0
   -5.1803    1.7328   -0.4907 H   0  0  0  0  0  0  0  0  0  0  0  0
    2.7035    1.6426   -1.8646 H   0  0  0  0  0  0  0  0  0  0  0  0
    5.0464    0.9700   -2.2769 H   0  0  0  0  0  0  0  0  0  0  0  0
    6.2698   -0.3846   -0.5970 H   0  0  0  0  0  0  0  0  0  0  0  0
    5.1455   -1.0675    1.5063 H   0  0  0  0  0  0  0  0  0  0  0  0
    2.8031   -0.4043    1.9363 H   0  0  0  0  0  0  0  0  0  0  0  0
   -0.0579   -3.0493   -1.9018 H   0  0  0  0  0  0  0  0  0  0  0  0
  1  2  1  0
  2  3  1  0
  3  4  1  0
  4  5  2  0
  5  6  1  0
  6  7  1  0
  7  8  2  0
  8  9  1  0
  9 10  2  0
  9 11  1  0
 11 12  1  0
 12 13  1  0
 13 14  1  0
 14 15  1  0
  7 16  1  0
 16 17  2  0
 17 18  1  0
 18 19  2  0
 19 20  1  0
 20 21  2  0
  4 22  1  0
 13  3  2  0
 12  6  2  0
 21 16  1  0
  1 23  1  0
  1 24  1  0
  1 25  1  0
  5 26  1  0
  8 27  1  0
 15 28  1  0
 15 29  1  0
 15 30  1  0
 17 31  1  0
 18 32  1  0
 19 33  1  0
 20 34  1  0
 21 35  1  0
 22 36  1  0
M  END
>  <Name>  (710) 
Kuhlmannin

>  <PubChem ID>  (710) 
4412068

>  <CDB ID>  (710) 
CDB0710

>  <Smiles>  (710) 
COC1=C(C=C2C(=CC(=O)OC2=C1OC)C3=CC=CC=C3)O

>  <Chemical class>  (710) 
6,7,8-Trioxygenated Coumarins

>  <Natural source>  (710) 
Machaerium kuhlmannii

>  <Molecular Formula>  (710) 
C17H14O5

>  <InChI-Key>  (710) 
ABUBCBFUQXIEAU-UHFFFAOYSA-N

>  <Total Molweight>  (710) 
298.293

>  <cLogP>  (710) 
2.5098

>  <cLogS>  (710) 
-3.315

>  <H-Acceptors>  (710) 
5

>  <H-Donors>  (710) 
1

>  <Rotatable Bonds>  (710) 
3

>  <Polar Surface Area>  (710) 
64.99

$$$$
CDB0711
     RDKit          3D

 36 37  0  0  0  0  0  0  0  0999 V2000
    4.0442   -1.0796    0.6978 C   0  0  0  0  0  0  0  0  0  0  0  0
    3.0538   -0.4098   -0.2205 C   0  0  0  0  0  0  0  0  0  0  0  0
    1.9778    0.2266    0.2842 C   0  0  0  0  0  0  0  0  0  0  0  0
    0.8758    0.9345   -0.4601 C   0  0  0  0  0  0  0  0  0  0  0  0
   -0.5040    0.5175    0.0210 C   0  0  0  0  0  0  0  0  0  0  0  0
   -1.1086   -0.6979   -0.3913 C   0  0  0  0  0  0  0  0  0  0  0  0
   -0.4938   -1.6278   -1.3382 C   0  0  0  0  0  0  0  0  0  0  0  0
   -1.1169   -2.7558   -1.6907 C   0  0  0  0  0  0  0  0  0  0  0  0
   -2.4359   -3.1286   -1.1620 C   0  0  0  0  0  0  0  0  0  0  0  0
   -2.9809   -4.1664   -1.5192 O   0  0  0  0  0  0  0  0  0  0  0  0
   -3.0061   -2.2522   -0.2579 O   0  0  0  0  0  0  0  0  0  0  0  0
   -2.3622   -1.0564    0.1322 C   0  0  0  0  0  0  0  0  0  0  0  0
   -3.0139   -0.2594    1.0666 C   0  0  0  0  0  0  0  0  0  0  0  0
   -2.4226    0.9219    1.4818 C   0  0  0  0  0  0  0  0  0  0  0  0
   -1.2008    1.3299    0.9417 C   0  0  0  0  0  0  0  0  0  0  0  0
   -0.6672    2.5166    1.3862 O   0  0  0  0  0  0  0  0  0  0  0  0
   -1.1489    3.6010    0.5827 C   0  0  0  0  0  0  0  0  0  0  0  0
   -3.0581    1.6633    2.4437 O   0  0  0  0  0  0  0  0  0  0  0  0
   -4.2198   -0.6295    1.5915 O   0  0  0  0  0  0  0  0  0  0  0  0
    3.3982   -0.5218   -1.6798 C   0  0  0  0  0  0  0  0  0  0  0  0
    3.7644   -0.9861    1.7524 H   0  0  0  0  0  0  0  0  0  0  0  0
    4.1119   -2.1476    0.4662 H   0  0  0  0  0  0  0  0  0  0  0  0
    5.0364   -0.6328    0.5764 H   0  0  0  0  0  0  0  0  0  0  0  0
    1.8632    0.2546    1.3691 H   0  0  0  0  0  0  0  0  0  0  0  0
    0.9275    0.7944   -1.5434 H   0  0  0  0  0  0  0  0  0  0  0  0
    1.0234    2.0108   -0.3181 H   0  0  0  0  0  0  0  0  0  0  0  0
    0.4811   -1.4087   -1.7546 H   0  0  0  0  0  0  0  0  0  0  0  0
   -0.6752   -3.4578   -2.3873 H   0  0  0  0  0  0  0  0  0  0  0  0
   -0.6202    4.5064    0.8951 H   0  0  0  0  0  0  0  0  0  0  0  0
   -2.2204    3.7613    0.7422 H   0  0  0  0  0  0  0  0  0  0  0  0
   -0.9458    3.4383   -0.4815 H   0  0  0  0  0  0  0  0  0  0  0  0
   -2.4067    2.3336    2.7290 H   0  0  0  0  0  0  0  0  0  0  0  0
   -4.4509    0.0767    2.2265 H   0  0  0  0  0  0  0  0  0  0  0  0
    4.4094   -0.1402   -1.8576 H   0  0  0  0  0  0  0  0  0  0  0  0
    2.7262    0.0412   -2.3304 H   0  0  0  0  0  0  0  0  0  0  0  0
    3.3657   -1.5703   -1.9938 H   0  0  0  0  0  0  0  0  0  0  0  0
  1  2  1  0
  2  3  2  3
  3  4  1  0
  4  5  1  0
  5  6  1  0
  6  7  1  0
  7  8  2  0
  8  9  1  0
  9 10  2  0
  9 11  1  0
 11 12  1  0
 12 13  1  0
 13 14  2  0
 14 15  1  0
 15 16  1  0
 16 17  1  0
 14 18  1  0
 13 19  1  0
  2 20  1  0
 15  5  2  0
 12  6  2  0
  1 21  1  0
  1 22  1  0
  1 23  1  0
  3 24  1  0
  4 25  1  0
  4 26  1  0
  7 27  1  0
  8 28  1  0
 17 29  1  0
 17 30  1  0
 17 31  1  0
 18 32  1  0
 19 33  1  0
 20 34  1  0
 20 35  1  0
 20 36  1  0
M  END
>  <Name>  (711) 
Obtusiprenin

>  <PubChem ID>  (711) 
23263155

>  <CDB ID>  (711) 
CDB0711

>  <Smiles>  (711) 
CC(=CCC1=C2C=CC(=O)OC2=C(C(=C1OC)O)O)C

>  <Chemical class>  (711) 
6,7,8-Trioxygenated Coumarins

>  <Natural source>  (711) 
Haplophylllum obtusifolium

>  <Molecular Formula>  (711) 
C15H16O5

>  <InChI-Key>  (711) 
VCQOFWFYLXOGFZ-UHFFFAOYSA-N

>  <Total Molweight>  (711) 
276.287

>  <cLogP>  (711) 
2.7585

>  <cLogS>  (711) 
-2.735

>  <H-Acceptors>  (711) 
5

>  <H-Donors>  (711) 
2

>  <Rotatable Bonds>  (711) 
3

>  <Polar Surface Area>  (711) 
75.99

$$$$
CDB0712
     RDKit          3D

 32 34  0  0  0  0  0  0  0  0999 V2000
   -1.0310   -1.9102   -1.9971 C   0  0  0  0  0  0  0  0  0  0  0  0
   -1.1607   -0.4964   -1.8343 O   0  0  0  0  0  0  0  0  0  0  0  0
   -1.2964   -0.1867   -0.4999 C   0  0  0  0  0  0  0  0  0  0  0  0
   -2.5902   -0.1955    0.0712 C   0  0  0  0  0  0  0  0  0  0  0  0
   -3.9073   -0.4800   -0.3863 C   0  0  0  0  0  0  0  0  0  0  0  0
   -4.7431   -0.3037    0.6917 C   0  0  0  0  0  0  0  0  0  0  0  0
   -4.0345    0.0759    1.7865 O   0  0  0  0  0  0  0  0  0  0  0  0
   -2.7290    0.1496    1.4086 C   0  0  0  0  0  0  0  0  0  0  0  0
   -1.6744    0.5200    2.2294 C   0  0  0  0  0  0  0  0  0  0  0  0
   -0.4147    0.5477    1.6186 C   0  0  0  0  0  0  0  0  0  0  0  0
   -0.1837    0.2185    0.2784 C   0  0  0  0  0  0  0  0  0  0  0  0
    1.2066    0.3242   -0.2038 C   0  0  0  0  0  0  0  0  0  0  0  0
    2.2206    0.6485    0.6179 C   0  0  0  0  0  0  0  0  0  0  0  0
    1.9581    1.0249    2.0343 C   0  0  0  0  0  0  0  0  0  0  0  0
    2.8455    1.3877    2.7994 O   0  0  0  0  0  0  0  0  0  0  0  0
    0.6428    0.9456    2.4645 O   0  0  0  0  0  0  0  0  0  0  0  0
    3.5190    0.6951    0.1119 O   0  0  0  0  0  0  0  0  0  0  0  0
    4.4394   -0.0940    0.8617 C   0  0  0  0  0  0  0  0  0  0  0  0
    1.4473   -0.0409   -1.5189 O   0  0  0  0  0  0  0  0  0  0  0  0
    1.5315    1.1088   -2.3631 C   0  0  0  0  0  0  0  0  0  0  0  0
   -0.2332   -2.3219   -1.3689 H   0  0  0  0  0  0  0  0  0  0  0  0
   -0.7728   -2.1034   -3.0425 H   0  0  0  0  0  0  0  0  0  0  0  0
   -1.9784   -2.4157   -1.7832 H   0  0  0  0  0  0  0  0  0  0  0  0
   -4.2031   -0.7752   -1.3830 H   0  0  0  0  0  0  0  0  0  0  0  0
   -5.8102   -0.4001    0.8368 H   0  0  0  0  0  0  0  0  0  0  0  0
   -1.8247    0.7839    3.2686 H   0  0  0  0  0  0  0  0  0  0  0  0
    3.9897   -1.0306    1.2097 H   0  0  0  0  0  0  0  0  0  0  0  0
    4.8432    0.4773    1.7018 H   0  0  0  0  0  0  0  0  0  0  0  0
    5.2754   -0.3464    0.2022 H   0  0  0  0  0  0  0  0  0  0  0  0
    1.6239    0.7598   -3.3957 H   0  0  0  0  0  0  0  0  0  0  0  0
    2.4162    1.7086   -2.1266 H   0  0  0  0  0  0  0  0  0  0  0  0
    0.6283    1.7244   -2.2902 H   0  0  0  0  0  0  0  0  0  0  0  0
  1  2  1  0
  2  3  1  0
  3  4  2  0
  4  5  1  0
  5  6  2  0
  6  7  1  0
  7  8  1  0
  8  9  2  0
  9 10  1  0
 10 11  2  0
 11 12  1  0
 12 13  2  0
 13 14  1  0
 14 15  2  0
 14 16  1  0
 13 17  1  0
 17 18  1  0
 12 19  1  0
 19 20  1  0
 11  3  1  0
  8  4  1  0
 16 10  1  0
  1 21  1  0
  1 22  1  0
  1 23  1  0
  5 24  1  0
  6 25  1  0
  9 26  1  0
 18 27  1  0
 18 28  1  0
 18 29  1  0
 20 30  1  0
 20 31  1  0
 20 32  1  0
M  END
>  <Name>  (712) 
Halfordin

>  <PubChem ID>  (712) 
623929

>  <CDB ID>  (712) 
CDB0712

>  <Smiles>  (712) 
COC1=C2C=COC2=CC3=C1C(=C(C(=O)O3)OC)OC

>  <Chemical class>  (712) 
3,4,5,7-Tetraoxygenated Coumarins

>  <Natural source>  (712) 
Halfordia scleroxyla

>  <Molecular Formula>  (712) 
C14H12O6

>  <InChI-Key>  (712) 
SHOQQSABOUVQLJ-UHFFFAOYSA-N

>  <Total Molweight>  (712) 
276.243

>  <cLogP>  (712) 
1.8528

>  <cLogS>  (712) 
-3.267

>  <H-Acceptors>  (712) 
6

>  <H-Donors>  (712) 
0

>  <Rotatable Bonds>  (712) 
3

>  <Polar Surface Area>  (712) 
67.13

$$$$
CDB0713
     RDKit          3D

 42 44  0  0  0  0  0  0  0  0999 V2000
   -3.3393    0.4557   -0.1591 C   0  0  0  0  0  0  0  0  0  0  0  0
   -2.1449   -0.4785    0.1003 C   0  0  0  0  0  0  0  0  0  0  0  0
   -2.6444   -1.9200   -0.1188 C   0  0  0  0  0  0  0  0  0  0  0  0
   -1.6321   -0.2288    1.5165 C   0  0  0  0  0  0  0  0  0  0  0  0
   -1.4674   -1.1188    2.5063 C   0  0  0  0  0  0  0  0  0  0  0  0
   -1.1349   -0.2871   -0.9285 O   0  0  0  0  0  0  0  0  0  0  0  0
   -0.2123    0.7325   -0.7856 C   0  0  0  0  0  0  0  0  0  0  0  0
   -0.4365    1.9574   -1.2977 C   0  0  0  0  0  0  0  0  0  0  0  0
    0.5780    3.0388   -1.1134 C   0  0  0  0  0  0  0  0  0  0  0  0
    0.4793    4.1477   -1.6280 O   0  0  0  0  0  0  0  0  0  0  0  0
    1.6455    2.7542   -0.2756 O   0  0  0  0  0  0  0  0  0  0  0  0
    1.9495    1.4380    0.1237 C   0  0  0  0  0  0  0  0  0  0  0  0
    1.0837    0.3809   -0.1690 C   0  0  0  0  0  0  0  0  0  0  0  0
    1.5190   -0.9289    0.1491 C   0  0  0  0  0  0  0  0  0  0  0  0
    2.7392   -1.1184    0.8368 C   0  0  0  0  0  0  0  0  0  0  0  0
    3.4559   -2.2324    1.3554 C   0  0  0  0  0  0  0  0  0  0  0  0
    4.6078   -1.7303    1.9147 C   0  0  0  0  0  0  0  0  0  0  0  0
    4.6555   -0.3797    1.7760 O   0  0  0  0  0  0  0  0  0  0  0  0
    3.5191   -0.0074    1.1256 C   0  0  0  0  0  0  0  0  0  0  0  0
    3.1781    1.2913    0.7796 C   0  0  0  0  0  0  0  0  0  0  0  0
    0.7606   -2.0363   -0.1489 O   0  0  0  0  0  0  0  0  0  0  0  0
    1.0980   -2.5243   -1.4482 C   0  0  0  0  0  0  0  0  0  0  0  0
   -1.6068    2.1713   -2.0252 O   0  0  0  0  0  0  0  0  0  0  0  0
   -2.1686    3.4775   -1.9566 C   0  0  0  0  0  0  0  0  0  0  0  0
   -3.6569    0.4067   -1.2068 H   0  0  0  0  0  0  0  0  0  0  0  0
   -3.0882    1.5007    0.0507 H   0  0  0  0  0  0  0  0  0  0  0  0
   -4.1964    0.1980    0.4740 H   0  0  0  0  0  0  0  0  0  0  0  0
   -3.4555   -2.1845    0.5685 H   0  0  0  0  0  0  0  0  0  0  0  0
   -3.0124   -2.0494   -1.1440 H   0  0  0  0  0  0  0  0  0  0  0  0
   -1.8357   -2.6486    0.0034 H   0  0  0  0  0  0  0  0  0  0  0  0
   -1.3839    0.8069    1.7450 H   0  0  0  0  0  0  0  0  0  0  0  0
   -1.0909   -0.8021    3.4745 H   0  0  0  0  0  0  0  0  0  0  0  0
   -1.6761   -2.1760    2.3836 H   0  0  0  0  0  0  0  0  0  0  0  0
    3.1588   -3.2710    1.3238 H   0  0  0  0  0  0  0  0  0  0  0  0
    5.4509   -2.1772    2.4231 H   0  0  0  0  0  0  0  0  0  0  0  0
    3.8263    2.1301    0.9991 H   0  0  0  0  0  0  0  0  0  0  0  0
    0.9602   -1.7579   -2.2186 H   0  0  0  0  0  0  0  0  0  0  0  0
    0.4267   -3.3576   -1.6764 H   0  0  0  0  0  0  0  0  0  0  0  0
    2.1260   -2.9015   -1.4700 H   0  0  0  0  0  0  0  0  0  0  0  0
   -2.1143    3.8938   -0.9451 H   0  0  0  0  0  0  0  0  0  0  0  0
   -3.2261    3.3973   -2.2267 H   0  0  0  0  0  0  0  0  0  0  0  0
   -1.6946    4.1383   -2.6874 H   0  0  0  0  0  0  0  0  0  0  0  0
  1  2  1  0
  2  3  1  0
  2  4  1  0
  4  5  2  0
  2  6  1  0
  6  7  1  0
  7  8  2  0
  8  9  1  0
  9 10  2  0
  9 11  1  0
 11 12  1  0
 12 13  2  0
 13 14  1  0
 14 15  2  0
 15 16  1  0
 16 17  2  0
 17 18  1  0
 18 19  1  0
 19 20  2  0
 14 21  1  0
 21 22  1  0
  8 23  1  0
 23 24  1  0
 13  7  1  0
 20 12  1  0
 19 15  1  0
  1 25  1  0
  1 26  1  0
  1 27  1  0
  3 28  1  0
  3 29  1  0
  3 30  1  0
  4 31  1  0
  5 32  1  0
  5 33  1  0
 16 34  1  0
 17 35  1  0
 20 36  1  0
 22 37  1  0
 22 38  1  0
 22 39  1  0
 24 40  1  0
 24 41  1  0
 24 42  1  0
M  END
>  <Name>  (713) 
Halfordinin

>  <PubChem ID>  (713) 
621713

>  <CDB ID>  (713) 
CDB0713

>  <Smiles>  (713) 
CC(C)(C=C)OC1=C(C(=O)OC2=C1C(=C3C=COC3=C2)OC)OC

>  <Chemical class>  (713) 
3,4,5,7-Tetraoxygenated Coumarins

>  <Natural source>  (713) 
Halfordia kendack

>  <Molecular Formula>  (713) 
C18H18O6

>  <InChI-Key>  (713) 
CJRBHIKORKDQEC-UHFFFAOYSA-N

>  <Total Molweight>  (713) 
330.335

>  <cLogP>  (713) 
3.2679

>  <cLogS>  (713) 
-4.263

>  <H-Acceptors>  (713) 
6

>  <H-Donors>  (713) 
0

>  <Rotatable Bonds>  (713) 
5

>  <Polar Surface Area>  (713) 
67.13

$$$$
CDB0714
     RDKit          3D

 32 33  0  0  0  0  0  0  0  0999 V2000
    4.3044    2.0107    0.3648 C   0  0  0  0  0  0  0  0  0  0  0  0
    2.8915    1.9579    0.2098 O   0  0  0  0  0  0  0  0  0  0  0  0
    2.3153    0.7210    0.1038 C   0  0  0  0  0  0  0  0  0  0  0  0
    0.9201    0.6986   -0.0798 C   0  0  0  0  0  0  0  0  0  0  0  0
    0.1713   -0.4802   -0.1898 C   0  0  0  0  0  0  0  0  0  0  0  0
    0.8995   -1.6907   -0.2068 C   0  0  0  0  0  0  0  0  0  0  0  0
    2.2950   -1.6783   -0.0012 C   0  0  0  0  0  0  0  0  0  0  0  0
    2.9960   -0.4865    0.1642 C   0  0  0  0  0  0  0  0  0  0  0  0
    3.0623   -2.8159    0.0352 O   0  0  0  0  0  0  0  0  0  0  0  0
    0.2732   -2.9973   -0.5199 C   0  0  0  0  0  0  0  0  0  0  0  0
    0.8440   -4.0506   -0.2420 O   0  0  0  0  0  0  0  0  0  0  0  0
   -1.3074   -0.3423   -0.2064 C   0  0  0  0  0  0  0  0  0  0  0  0
   -1.8807    0.8700   -0.3856 C   0  0  0  0  0  0  0  0  0  0  0  0
   -1.0274    2.0823   -0.5678 C   0  0  0  0  0  0  0  0  0  0  0  0
   -1.4778    3.1550   -0.9555 O   0  0  0  0  0  0  0  0  0  0  0  0
    0.2973    1.9576   -0.2060 O   0  0  0  0  0  0  0  0  0  0  0  0
   -3.2640    1.0069   -0.4433 O   0  0  0  0  0  0  0  0  0  0  0  0
   -3.7861    2.0904    0.3249 C   0  0  0  0  0  0  0  0  0  0  0  0
   -1.9545   -1.5303    0.0520 O   0  0  0  0  0  0  0  0  0  0  0  0
   -3.3703   -1.6042    0.1521 C   0  0  0  0  0  0  0  0  0  0  0  0
    4.5956    3.0642    0.4170 H   0  0  0  0  0  0  0  0  0  0  0  0
    4.6162    1.5323    1.2990 H   0  0  0  0  0  0  0  0  0  0  0  0
    4.8132    1.5668   -0.4972 H   0  0  0  0  0  0  0  0  0  0  0  0
    4.0692   -0.5412    0.3139 H   0  0  0  0  0  0  0  0  0  0  0  0
    2.4641   -3.5976   -0.0050 H   0  0  0  0  0  0  0  0  0  0  0  0
   -0.6839   -3.0097   -1.0604 H   0  0  0  0  0  0  0  0  0  0  0  0
   -3.8100    3.0072   -0.2701 H   0  0  0  0  0  0  0  0  0  0  0  0
   -4.8189    1.8419    0.5877 H   0  0  0  0  0  0  0  0  0  0  0  0
   -3.2293    2.2408    1.2564 H   0  0  0  0  0  0  0  0  0  0  0  0
   -3.7409   -0.9854    0.9747 H   0  0  0  0  0  0  0  0  0  0  0  0
   -3.8460   -1.3511   -0.7999 H   0  0  0  0  0  0  0  0  0  0  0  0
   -3.6310   -2.6422    0.3811 H   0  0  0  0  0  0  0  0  0  0  0  0
  1  2  1  0
  2  3  1  0
  3  4  1  0
  4  5  2  0
  5  6  1  0
  6  7  2  0
  7  8  1  0
  7  9  1  0
  6 10  1  0
 10 11  2  0
  5 12  1  0
 12 13  2  0
 13 14  1  0
 14 15  2  0
 14 16  1  0
 13 17  1  0
 17 18  1  0
 12 19  1  0
 19 20  1  0
  8  3  2  0
 16  4  1  0
  1 21  1  0
  1 22  1  0
  1 23  1  0
  8 24  1  0
  9 25  1  0
 10 26  1  0
 18 27  1  0
 18 28  1  0
 18 29  1  0
 20 30  1  0
 20 31  1  0
 20 32  1  0
M  END
>  <Name>  (714) 
Pereflorin B

>  <PubChem ID>  (714) 
71439576

>  <CDB ID>  (714) 
CDB0714

>  <Smiles>  (714) 
COC1=C2C(=C(C(=C1)O)C=O)C(=C(C(=O)O2)OC)OC

>  <Chemical class>  (714) 
3,4,6,8-Tetraoxygenated Coumarins

>  <Natural source>  (714) 
Perezia multiflora

>  <Molecular Formula>  (714) 
C13H12O7

>  <InChI-Key>  (714) 
UYQUBLIVXOKOHE-UHFFFAOYSA-N

>  <Total Molweight>  (714) 
280.231

>  <cLogP>  (714) 
0.9888

>  <cLogS>  (714) 
-2.136

>  <H-Acceptors>  (714) 
7

>  <H-Donors>  (714) 
1

>  <Rotatable Bonds>  (714) 
4

>  <Polar Surface Area>  (714) 
91.29

$$$$
CDB0715
     RDKit          3D

 32 34  0  0  0  0  0  0  0  0999 V2000
    3.6216    0.3009    1.8047 C   0  0  0  0  0  0  0  0  0  0  0  0
    2.2331    0.0538    1.6384 O   0  0  0  0  0  0  0  0  0  0  0  0
    1.6230    0.2457    0.4150 C   0  0  0  0  0  0  0  0  0  0  0  0
    2.2084    0.5548   -0.7640 C   0  0  0  0  0  0  0  0  0  0  0  0
    1.3769    0.7790   -1.9894 C   0  0  0  0  0  0  0  0  0  0  0  0
    1.8695    1.1317   -3.0572 O   0  0  0  0  0  0  0  0  0  0  0  0
    0.0155    0.5659   -1.8828 O   0  0  0  0  0  0  0  0  0  0  0  0
   -0.6088    0.2145   -0.6673 C   0  0  0  0  0  0  0  0  0  0  0  0
    0.1609    0.0584    0.4828 C   0  0  0  0  0  0  0  0  0  0  0  0
   -0.4915   -0.2831    1.6830 C   0  0  0  0  0  0  0  0  0  0  0  0
   -1.8887   -0.4607    1.7002 C   0  0  0  0  0  0  0  0  0  0  0  0
   -2.8420   -0.7972    2.6982 C   0  0  0  0  0  0  0  0  0  0  0  0
   -4.0655   -0.8153    2.0740 C   0  0  0  0  0  0  0  0  0  0  0  0
   -3.9323   -0.5129    0.7586 O   0  0  0  0  0  0  0  0  0  0  0  0
   -2.6048   -0.2926    0.5164 C   0  0  0  0  0  0  0  0  0  0  0  0
   -2.0091    0.0486   -0.7044 C   0  0  0  0  0  0  0  0  0  0  0  0
   -2.6231    0.2372   -1.9305 O   0  0  0  0  0  0  0  0  0  0  0  0
   -4.0372    0.1029   -1.9600 C   0  0  0  0  0  0  0  0  0  0  0  0
    3.5864    0.7303   -0.8551 O   0  0  0  0  0  0  0  0  0  0  0  0
    4.1955   -0.0348   -1.8943 C   0  0  0  0  0  0  0  0  0  0  0  0
    3.8745    1.3346    1.5497 H   0  0  0  0  0  0  0  0  0  0  0  0
    3.8585    0.1578    2.8636 H   0  0  0  0  0  0  0  0  0  0  0  0
    4.2189   -0.4189    1.2376 H   0  0  0  0  0  0  0  0  0  0  0  0
    0.0684   -0.4152    2.6053 H   0  0  0  0  0  0  0  0  0  0  0  0
   -2.6567   -1.0012    3.7433 H   0  0  0  0  0  0  0  0  0  0  0  0
   -5.0743   -1.0146    2.4080 H   0  0  0  0  0  0  0  0  0  0  0  0
   -4.3428   -0.9175   -1.7081 H   0  0  0  0  0  0  0  0  0  0  0  0
   -4.3672    0.2993   -2.9850 H   0  0  0  0  0  0  0  0  0  0  0  0
   -4.5199    0.8429   -1.3136 H   0  0  0  0  0  0  0  0  0  0  0  0
    5.2315   -0.2280   -1.5994 H   0  0  0  0  0  0  0  0  0  0  0  0
    4.2201    0.5354   -2.8267 H   0  0  0  0  0  0  0  0  0  0  0  0
    3.7014   -1.0018   -2.0407 H   0  0  0  0  0  0  0  0  0  0  0  0
  1  2  1  0
  2  3  1  0
  3  4  2  0
  4  5  1  0
  5  6  2  0
  5  7  1  0
  7  8  1  0
  8  9  2  0
  9 10  1  0
 10 11  2  0
 11 12  1  0
 12 13  2  0
 13 14  1  0
 14 15  1  0
 15 16  2  0
 16 17  1  0
 17 18  1  0
  4 19  1  0
 19 20  1  0
  9  3  1  0
 16  8  1  0
 15 11  1  0
  1 21  1  0
  1 22  1  0
  1 23  1  0
 10 24  1  0
 12 25  1  0
 13 26  1  0
 18 27  1  0
 18 28  1  0
 18 29  1  0
 20 30  1  0
 20 31  1  0
 20 32  1  0
M  END
>  <Name>  (715) 
Isohalfordin

>  <PubChem ID>  (715) 
623933

>  <CDB ID>  (715) 
CDB0715

>  <Smiles>  (715) 
COC1=C(C(=O)OC2=C1C=C3C=COC3=C2OC)OC

>  <Chemical class>  (715) 
3,4,7,8-Tetraoxygenated Coumarins

>  <Natural source>  (715) 
Halfordia scleroxyla

>  <Molecular Formula>  (715) 
C14H12O6

>  <InChI-Key>  (715) 
NGCYDEYEPDYBIX-UHFFFAOYSA-N

>  <Total Molweight>  (715) 
276.243

>  <cLogP>  (715) 
1.8528

>  <cLogS>  (715) 
-3.267

>  <H-Acceptors>  (715) 
6

>  <H-Donors>  (715) 
0

>  <Rotatable Bonds>  (715) 
3

>  <Polar Surface Area>  (715) 
67.13

$$$$
CDB0716
     RDKit          3D

 50 53  0  0  0  0  0  0  0  0999 V2000
   -6.9203    1.6919    0.4941 C   0  0  0  0  0  0  0  0  0  0  0  0
   -6.2153    0.3699    0.6853 C   0  0  0  0  0  0  0  0  0  0  0  0
   -6.9392   -0.7158    1.0167 C   0  0  0  0  0  0  0  0  0  0  0  0
   -4.7958    0.1993    0.5330 C   0  0  0  0  0  0  0  0  0  0  0  0
   -3.8350    1.1443    0.1948 C   0  0  0  0  0  0  0  0  0  0  0  0
   -2.5649    0.5059    0.1622 C   0  0  0  0  0  0  0  0  0  0  0  0
   -2.8028   -0.8178    0.5028 C   0  0  0  0  0  0  0  0  0  0  0  0
   -4.1358   -0.9969    0.7121 O   0  0  0  0  0  0  0  0  0  0  0  0
   -1.7968   -1.7853    0.6026 C   0  0  0  0  0  0  0  0  0  0  0  0
   -0.4865   -1.3207    0.3619 C   0  0  0  0  0  0  0  0  0  0  0  0
   -0.1709   -0.0005    0.0348 C   0  0  0  0  0  0  0  0  0  0  0  0
   -1.2400    0.9113   -0.1130 C   0  0  0  0  0  0  0  0  0  0  0  0
   -0.9722    2.2248   -0.4543 O   0  0  0  0  0  0  0  0  0  0  0  0
   -1.3020    2.4483   -1.8315 C   0  0  0  0  0  0  0  0  0  0  0  0
    1.2545    0.3415   -0.1377 C   0  0  0  0  0  0  0  0  0  0  0  0
    2.2222   -0.5934   -0.0732 C   0  0  0  0  0  0  0  0  0  0  0  0
    1.8773   -2.0113    0.2141 C   0  0  0  0  0  0  0  0  0  0  0  0
    2.7199   -2.9019    0.2568 O   0  0  0  0  0  0  0  0  0  0  0  0
    0.5424   -2.2892    0.4553 O   0  0  0  0  0  0  0  0  0  0  0  0
    3.6466   -0.2221   -0.2502 C   0  0  0  0  0  0  0  0  0  0  0  0
    4.1007    0.3490   -1.4461 C   0  0  0  0  0  0  0  0  0  0  0  0
    5.4479    0.6871   -1.6044 C   0  0  0  0  0  0  0  0  0  0  0  0
    6.3661    0.4571   -0.5783 C   0  0  0  0  0  0  0  0  0  0  0  0
    5.9236   -0.1143    0.6140 C   0  0  0  0  0  0  0  0  0  0  0  0
    4.5734   -0.4513    0.7760 C   0  0  0  0  0  0  0  0  0  0  0  0
    7.6499    0.8320   -0.8645 O   0  0  0  0  0  0  0  0  0  0  0  0
    8.6287    0.5816    0.1361 C   0  0  0  0  0  0  0  0  0  0  0  0
    1.5752    1.6768   -0.3330 O   0  0  0  0  0  0  0  0  0  0  0  0
   -1.9313   -3.1252    0.9197 O   0  0  0  0  0  0  0  0  0  0  0  0
   -3.2521   -3.5994    1.1423 C   0  0  0  0  0  0  0  0  0  0  0  0
   -8.0011    1.6170    0.6553 H   0  0  0  0  0  0  0  0  0  0  0  0
   -6.7615    2.0619   -0.5244 H   0  0  0  0  0  0  0  0  0  0  0  0
   -6.5305    2.4343    1.1986 H   0  0  0  0  0  0  0  0  0  0  0  0
   -6.4885   -1.6927    1.1683 H   0  0  0  0  0  0  0  0  0  0  0  0
   -8.0155   -0.6624    1.1494 H   0  0  0  0  0  0  0  0  0  0  0  0
   -4.0301    2.1889   -0.0048 H   0  0  0  0  0  0  0  0  0  0  0  0
   -2.3855    2.4518   -1.9831 H   0  0  0  0  0  0  0  0  0  0  0  0
   -0.8263    1.7058   -2.4823 H   0  0  0  0  0  0  0  0  0  0  0  0
   -0.9190    3.4352   -2.1075 H   0  0  0  0  0  0  0  0  0  0  0  0
    3.4094    0.5408   -2.2631 H   0  0  0  0  0  0  0  0  0  0  0  0
    5.7838    1.1325   -2.5374 H   0  0  0  0  0  0  0  0  0  0  0  0
    6.5989   -0.3163    1.4383 H   0  0  0  0  0  0  0  0  0  0  0  0
    4.2555   -0.9042    1.7130 H   0  0  0  0  0  0  0  0  0  0  0  0
    8.7122   -0.4894    0.3486 H   0  0  0  0  0  0  0  0  0  0  0  0
    9.5951    0.9203   -0.2497 H   0  0  0  0  0  0  0  0  0  0  0  0
    8.4162    1.1509    1.0470 H   0  0  0  0  0  0  0  0  0  0  0  0
    0.7826    2.2199   -0.1589 H   0  0  0  0  0  0  0  0  0  0  0  0
   -3.1876   -4.6707    1.3568 H   0  0  0  0  0  0  0  0  0  0  0  0
   -3.7031   -3.1175    2.0155 H   0  0  0  0  0  0  0  0  0  0  0  0
   -3.8725   -3.4816    0.2480 H   0  0  0  0  0  0  0  0  0  0  0  0
  1  2  1  0
  2  3  2  0
  2  4  1  0
  4  5  2  0
  5  6  1  0
  6  7  1  0
  7  8  1  0
  7  9  2  0
  9 10  1  0
 10 11  2  0
 11 12  1  0
 12 13  1  0
 13 14  1  0
 11 15  1  0
 15 16  2  0
 16 17  1  0
 17 18  2  0
 17 19  1  0
 16 20  1  0
 20 21  1  0
 21 22  2  0
 22 23  1  0
 23 24  2  0
 24 25  1  0
 23 26  1  0
 26 27  1  0
 15 28  1  0
  9 29  1  0
 29 30  1  0
  8  4  1  0
 12  6  2  0
 19 10  1  0
 25 20  2  0
  1 31  1  0
  1 32  1  0
  1 33  1  0
  3 34  1  0
  3 35  1  0
  5 36  1  0
 14 37  1  0
 14 38  1  0
 14 39  1  0
 21 40  1  0
 22 41  1  0
 24 42  1  0
 25 43  1  0
 27 44  1  0
 27 45  1  0
 27 46  1  0
 28 47  1  0
 30 48  1  0
 30 49  1  0
 30 50  1  0
M  END
>  <Name>  (716) 
Thonningine-B

>  <PubChem ID>  (716) 
54715762

>  <CDB ID>  (716) 
CDB0716

>  <Smiles>  (716) 
CC(=C)C1=CC2=C(O1)C(=C3C(=C2OC)C(=C(C(=O)O3)C4=CC=C(C=C4)OC)O)OC

>  <Chemical class>  (716) 
4,5,7,8-Tetraoxygenated Coumarins

>  <Natural source>  (716) 
Milletia thonningii

>  <Molecular Formula>  (716) 
C23H20O7

>  <InChI-Key>  (716) 
JFOIHGHOZIMXTP-UHFFFAOYSA-N

>  <Total Molweight>  (716) 
408.405

>  <cLogP>  (716) 
3.5893

>  <cLogS>  (716) 
-4.631

>  <H-Acceptors>  (716) 
7

>  <H-Donors>  (716) 
1

>  <Rotatable Bonds>  (716) 
5

>  <Polar Surface Area>  (716) 
87.36

$$$$
CDB0717
     RDKit          3D

 49 53  0  0  0  0  0  0  0  0999 V2000
   -6.6481   -0.9401    1.6864 C   0  0  0  0  0  0  0  0  0  0  0  0
   -6.0034   -0.6154    0.3596 C   0  0  0  0  0  0  0  0  0  0  0  0
   -6.7853   -0.4388   -0.7221 C   0  0  0  0  0  0  0  0  0  0  0  0
   -4.5832   -0.4808    0.1803 C   0  0  0  0  0  0  0  0  0  0  0  0
   -3.5684   -0.6176    1.1196 C   0  0  0  0  0  0  0  0  0  0  0  0
   -2.3213   -0.3968    0.4733 C   0  0  0  0  0  0  0  0  0  0  0  0
   -2.6306   -0.1128   -0.8491 C   0  0  0  0  0  0  0  0  0  0  0  0
   -3.9795   -0.1757   -1.0201 O   0  0  0  0  0  0  0  0  0  0  0  0
   -1.6710    0.1855   -1.8230 C   0  0  0  0  0  0  0  0  0  0  0  0
   -0.3363    0.2125   -1.3669 C   0  0  0  0  0  0  0  0  0  0  0  0
    0.0463   -0.0434   -0.0481 C   0  0  0  0  0  0  0  0  0  0  0  0
   -0.9657   -0.4008    0.8706 C   0  0  0  0  0  0  0  0  0  0  0  0
   -0.6258   -0.6791    2.1823 O   0  0  0  0  0  0  0  0  0  0  0  0
   -0.6790   -2.0933    2.4112 C   0  0  0  0  0  0  0  0  0  0  0  0
    1.4789    0.0746    0.2853 C   0  0  0  0  0  0  0  0  0  0  0  0
    2.4055    0.3349   -0.6562 C   0  0  0  0  0  0  0  0  0  0  0  0
    2.0048    0.5401   -2.0722 C   0  0  0  0  0  0  0  0  0  0  0  0
    2.8205    0.7402   -2.9662 O   0  0  0  0  0  0  0  0  0  0  0  0
    0.6473    0.5085   -2.3426 O   0  0  0  0  0  0  0  0  0  0  0  0
    3.8360    0.4549   -0.2908 C   0  0  0  0  0  0  0  0  0  0  0  0
    4.4974    1.6852   -0.4362 C   0  0  0  0  0  0  0  0  0  0  0  0
    5.8304    1.7507   -0.0871 C   0  0  0  0  0  0  0  0  0  0  0  0
    6.5120    0.6558    0.3891 C   0  0  0  0  0  0  0  0  0  0  0  0
    5.9001   -0.5680    0.5443 C   0  0  0  0  0  0  0  0  0  0  0  0
    4.5479   -0.6660    0.1990 C   0  0  0  0  0  0  0  0  0  0  0  0
    7.8122    0.9358    0.6722 O   0  0  0  0  0  0  0  0  0  0  0  0
    7.8741    2.3302    0.3070 C   0  0  0  0  0  0  0  0  0  0  0  0
    6.6167    2.8583   -0.1623 O   0  0  0  0  0  0  0  0  0  0  0  0
    1.8443   -0.0548    1.6169 O   0  0  0  0  0  0  0  0  0  0  0  0
   -1.8745    0.4659   -3.1624 O   0  0  0  0  0  0  0  0  0  0  0  0
   -3.2178    0.4360   -3.6246 C   0  0  0  0  0  0  0  0  0  0  0  0
   -7.7396   -0.9988    1.6180 H   0  0  0  0  0  0  0  0  0  0  0  0
   -6.4028   -0.1698    2.4251 H   0  0  0  0  0  0  0  0  0  0  0  0
   -6.2865   -1.9052    2.0570 H   0  0  0  0  0  0  0  0  0  0  0  0
   -6.3798   -0.2027   -1.7020 H   0  0  0  0  0  0  0  0  0  0  0  0
   -7.8660   -0.5241   -0.6620 H   0  0  0  0  0  0  0  0  0  0  0  0
   -3.7136   -0.8498    2.1655 H   0  0  0  0  0  0  0  0  0  0  0  0
   -0.2373   -2.2863    3.3934 H   0  0  0  0  0  0  0  0  0  0  0  0
   -0.0954   -2.6420    1.6634 H   0  0  0  0  0  0  0  0  0  0  0  0
   -1.7123   -2.4524    2.4292 H   0  0  0  0  0  0  0  0  0  0  0  0
    3.9898    2.5653   -0.8161 H   0  0  0  0  0  0  0  0  0  0  0  0
    6.4479   -1.4238    0.9212 H   0  0  0  0  0  0  0  0  0  0  0  0
    4.0422   -1.6223    0.3167 H   0  0  0  0  0  0  0  0  0  0  0  0
    8.1911    2.9075    1.1832 H   0  0  0  0  0  0  0  0  0  0  0  0
    8.6233    2.4527   -0.4838 H   0  0  0  0  0  0  0  0  0  0  0  0
    1.0369   -0.0426    2.1664 H   0  0  0  0  0  0  0  0  0  0  0  0
   -3.2048    0.6642   -4.6949 H   0  0  0  0  0  0  0  0  0  0  0  0
   -3.8223    1.2050   -3.1334 H   0  0  0  0  0  0  0  0  0  0  0  0
   -3.6555   -0.5605   -3.5078 H   0  0  0  0  0  0  0  0  0  0  0  0
  1  2  1  0
  2  3  2  0
  2  4  1  0
  4  5  2  0
  5  6  1  0
  6  7  1  0
  7  8  1  0
  7  9  2  0
  9 10  1  0
 10 11  2  0
 11 12  1  0
 12 13  1  0
 13 14  1  0
 11 15  1  0
 15 16  2  0
 16 17  1  0
 17 18  2  0
 17 19  1  0
 16 20  1  0
 20 21  2  0
 21 22  1  0
 22 23  2  0
 23 24  1  0
 24 25  2  0
 23 26  1  0
 26 27  1  0
 27 28  1  0
 15 29  1  0
  9 30  1  0
 30 31  1  0
  8  4  1  0
 12  6  2  0
 19 10  1  0
 25 20  1  0
 28 22  1  0
  1 32  1  0
  1 33  1  0
  1 34  1  0
  3 35  1  0
  3 36  1  0
  5 37  1  0
 14 38  1  0
 14 39  1  0
 14 40  1  0
 21 41  1  0
 24 42  1  0
 25 43  1  0
 27 44  1  0
 27 45  1  0
 29 46  1  0
 31 47  1  0
 31 48  1  0
 31 49  1  0
M  END
>  <Name>  (717) 
Thonningine-A

>  <PubChem ID>  (717) 
54715763

>  <CDB ID>  (717) 
CDB0717

>  <Smiles>  (717) 
CC(=C)C1=CC2=C(O1)C(=C3C(=C2OC)C(=C(C(=O)O3)C4=CC5=C(C=C4)OCO5)O)OC

>  <Chemical class>  (717) 
4,5,7,8-Tetraoxygenated Coumarins

>  <Natural source>  (717) 
Milletia thonningii

>  <Molecular Formula>  (717) 
C23H18O8

>  <InChI-Key>  (717) 
DHHUFQCTMOFVTD-UHFFFAOYSA-N

>  <Total Molweight>  (717) 
422.388

>  <cLogP>  (717) 
3.7707

>  <cLogS>  (717) 
-5.324

>  <H-Acceptors>  (717) 
8

>  <H-Donors>  (717) 
1

>  <Rotatable Bonds>  (717) 
4

>  <Polar Surface Area>  (717) 
96.59

$$$$
CDB0718
     RDKit          3D

 38 40  0  0  0  0  0  0  0  0999 V2000
    2.3536    3.4390   -1.1790 C   0  0  0  0  0  0  0  0  0  0  0  0
    2.3977    2.1586   -1.8070 O   0  0  0  0  0  0  0  0  0  0  0  0
    2.0514    1.1841   -0.9025 C   0  0  0  0  0  0  0  0  0  0  0  0
    0.7244    0.7429   -0.8316 C   0  0  0  0  0  0  0  0  0  0  0  0
   -0.2020    1.3546   -1.6385 O   0  0  0  0  0  0  0  0  0  0  0  0
   -1.4108    0.5890   -1.7451 C   0  0  0  0  0  0  0  0  0  0  0  0
   -1.8796    0.1485   -0.3578 C   0  0  1  0  0  0  0  0  0  0  0  0
   -3.2393   -0.5991   -0.3693 C   0  0  0  0  0  0  0  0  0  0  0  0
   -4.3740    0.2693   -0.9184 C   0  0  0  0  0  0  0  0  0  0  0  0
   -3.6121   -1.0864    1.0384 C   0  0  0  0  0  0  0  0  0  0  0  0
   -3.1422   -1.7550   -1.2129 O   0  0  0  0  0  0  0  0  0  0  0  0
   -0.8933   -0.7497    0.1981 O   0  0  0  0  0  0  0  0  0  0  0  0
    0.3874   -0.2839    0.0524 C   0  0  0  0  0  0  0  0  0  0  0  0
    1.3909   -0.8853    0.8206 C   0  0  0  0  0  0  0  0  0  0  0  0
    1.0080   -1.9359    1.6878 O   0  0  0  0  0  0  0  0  0  0  0  0
    1.9233   -2.5889    2.4966 C   0  0  0  0  0  0  0  0  0  0  0  0
    1.6102   -3.5120    3.2385 O   0  0  0  0  0  0  0  0  0  0  0  0
    3.3142   -2.1127    2.4326 C   0  0  0  0  0  0  0  0  0  0  0  0
    3.6981   -1.1235    1.6201 C   0  0  0  0  0  0  0  0  0  0  0  0
    2.7245   -0.4731    0.7494 C   0  0  0  0  0  0  0  0  0  0  0  0
    3.0474    0.5638   -0.1340 C   0  0  0  0  0  0  0  0  0  0  0  0
    4.3395    1.0014   -0.2719 O   0  0  0  0  0  0  0  0  0  0  0  0
    1.3468    3.6681   -0.8123 H   0  0  0  0  0  0  0  0  0  0  0  0
    2.6178    4.1894   -1.9301 H   0  0  0  0  0  0  0  0  0  0  0  0
    3.0798    3.5088   -0.3619 H   0  0  0  0  0  0  0  0  0  0  0  0
   -1.2208   -0.2643   -2.4082 H   0  0  0  0  0  0  0  0  0  0  0  0
   -2.1449    1.2392   -2.2281 H   0  0  0  0  0  0  0  0  0  0  0  0
   -1.9477    1.0180    0.3114 H   0  0  0  0  0  0  0  0  0  0  0  0
   -4.2337    0.4932   -1.9809 H   0  0  0  0  0  0  0  0  0  0  0  0
   -4.4630    1.2106   -0.3667 H   0  0  0  0  0  0  0  0  0  0  0  0
   -5.3328   -0.2586   -0.8535 H   0  0  0  0  0  0  0  0  0  0  0  0
   -3.6980   -0.2513    1.7412 H   0  0  0  0  0  0  0  0  0  0  0  0
   -2.8733   -1.7954    1.4281 H   0  0  0  0  0  0  0  0  0  0  0  0
   -4.5665   -1.6256    1.0227 H   0  0  0  0  0  0  0  0  0  0  0  0
   -2.4190   -2.3038   -0.8523 H   0  0  0  0  0  0  0  0  0  0  0  0
    4.0108   -2.6095    3.0974 H   0  0  0  0  0  0  0  0  0  0  0  0
    4.7269   -0.7815    1.6228 H   0  0  0  0  0  0  0  0  0  0  0  0
    4.9003    0.2172   -0.3962 H   0  0  0  0  0  0  0  0  0  0  0  0
  1  2  1  0
  2  3  1  0
  3  4  2  0
  4  5  1  0
  5  6  1  0
  6  7  1  0
  7  8  1  0
  8  9  1  0
  8 10  1  0
  8 11  1  0
  7 12  1  0
 12 13  1  0
 13 14  2  0
 14 15  1  0
 15 16  1  0
 16 17  2  0
 16 18  1  0
 18 19  2  0
 19 20  1  0
 20 21  2  0
 21 22  1  0
 21  3  1  0
 13  4  1  0
 20 14  1  0
  1 23  1  0
  1 24  1  0
  1 25  1  0
  6 26  1  0
  6 27  1  0
  7 28  1  1
  9 29  1  0
  9 30  1  0
  9 31  1  0
 10 32  1  0
 10 33  1  0
 10 34  1  0
 11 35  1  0
 18 36  1  0
 19 37  1  0
 22 38  1  0
M  END
>  <Name>  (718) 
Purpurasolol

>  <PubChem ID>  (718) 
15287104

>  <CDB ID>  (718) 
CDB0718

>  <Smiles>  (718) 
COC1=C2OC[C@@H](C(C)(C)O)OC2=C2OC(=O)C=CC2=C1O

>  <Chemical class>  (718) 
5,6,7,8-Tetraoxygenated Coumarins

>  <Natural source>  (718) 
Pterocaulon purpurascens

>  <Molecular Formula>  (718) 
C15H16O7

>  <InChI-Key>  (718) 
WNUVTZZRMSEUGI-QMMMGPOBSA-N

>  <Total Molweight>  (718) 
308.285

>  <cLogP>  (718) 
1.1984

>  <cLogS>  (718) 
-2.632

>  <H-Acceptors>  (718) 
7

>  <H-Donors>  (718) 
2

>  <Rotatable Bonds>  (718) 
2

>  <Polar Surface Area>  (718) 
94.45

$$$$
CDB0719
     RDKit          3D

 38 40  0  0  0  0  0  0  0  0999 V2000
    4.0312    0.2064    0.1384 C   0  0  0  0  0  0  0  0  0  0  0  0
    2.6866   -0.0039    0.8194 C   0  0  0  0  0  0  0  0  0  0  0  0
    1.4710    0.2971   -0.0606 C   0  0  0  0  0  0  0  0  0  0  0  0
    1.0426    1.7632   -0.1310 C   0  0  0  0  0  0  0  0  0  0  0  0
   -0.0750    1.9893   -1.1635 C   0  0  0  0  0  0  0  0  0  0  0  0
   -1.4582    1.5666   -0.7150 C   0  0  0  0  0  0  0  0  0  0  0  0
   -1.7356    0.2914   -0.3748 C   0  0  0  0  0  0  0  0  0  0  0  0
   -0.7845   -0.8991   -0.3586 C   0  0  0  0  0  0  0  0  0  0  0  0
    0.4246   -0.6239    0.5598 C   0  0  0  0  0  0  0  0  0  0  0  0
    1.1780   -1.8112    0.8348 O   0  0  0  0  0  0  0  0  0  0  0  0
    2.4690   -1.4682    1.1158 C   0  0  0  0  0  0  0  0  0  0  0  0
    3.2997   -2.2479    1.5498 O   0  0  0  0  0  0  0  0  0  0  0  0
   -1.6601   -2.0562    0.0849 C   0  0  0  0  0  0  0  0  0  0  0  0
   -2.9165   -1.6797    0.3389 C   0  0  0  0  0  0  0  0  0  0  0  0
   -3.0532   -0.2317    0.1036 C   0  0  0  0  0  0  0  0  0  0  0  0
   -4.0932    0.3682    0.3008 O   0  0  0  0  0  0  0  0  0  0  0  0
   -3.9570   -2.4660    0.7362 O   0  0  0  0  0  0  0  0  0  0  0  0
   -1.1598   -3.4606    0.1336 C   0  0  0  0  0  0  0  0  0  0  0  0
   -2.4532    2.7017   -0.7220 C   0  0  0  0  0  0  0  0  0  0  0  0
    2.1527    2.5559   -0.5493 O   0  0  0  0  0  0  0  0  0  0  0  0
    4.2207    1.2610   -0.0741 H   0  0  0  0  0  0  0  0  0  0  0  0
    4.8468   -0.1482    0.7786 H   0  0  0  0  0  0  0  0  0  0  0  0
    4.0951   -0.3503   -0.8031 H   0  0  0  0  0  0  0  0  0  0  0  0
    2.6379    0.5453    1.7669 H   0  0  0  0  0  0  0  0  0  0  0  0
    1.7101   -0.0527   -1.0766 H   0  0  0  0  0  0  0  0  0  0  0  0
    0.7236    2.1282    0.8533 H   0  0  0  0  0  0  0  0  0  0  0  0
   -0.0871    3.0584   -1.4184 H   0  0  0  0  0  0  0  0  0  0  0  0
    0.1707    1.4924   -2.1119 H   0  0  0  0  0  0  0  0  0  0  0  0
   -0.4468   -1.1182   -1.3804 H   0  0  0  0  0  0  0  0  0  0  0  0
    0.0759   -0.2362    1.5283 H   0  0  0  0  0  0  0  0  0  0  0  0
   -4.7213   -1.8596    0.8204 H   0  0  0  0  0  0  0  0  0  0  0  0
   -0.5663   -3.6859   -0.7581 H   0  0  0  0  0  0  0  0  0  0  0  0
   -1.9826   -4.1827    0.1666 H   0  0  0  0  0  0  0  0  0  0  0  0
   -0.5429   -3.6272    1.0207 H   0  0  0  0  0  0  0  0  0  0  0  0
   -3.4779    2.4110   -0.4965 H   0  0  0  0  0  0  0  0  0  0  0  0
   -2.1569    3.4592    0.0116 H   0  0  0  0  0  0  0  0  0  0  0  0
   -2.4745    3.1716   -1.7117 H   0  0  0  0  0  0  0  0  0  0  0  0
    2.5662    2.9427    0.2428 H   0  0  0  0  0  0  0  0  0  0  0  0
  1  2  1  0
  2  3  1  0
  3  4  1  0
  4  5  1  0
  5  6  1  0
  6  7  2  0
  7  8  1  0
  8  9  1  0
  9 10  1  0
 10 11  1  0
 11 12  2  0
  8 13  1  0
 13 14  2  0
 14 15  1  0
 15 16  2  0
 14 17  1  0
 13 18  1  0
  6 19  1  0
  4 20  1  0
 11  2  1  0
  9  3  1  0
 15  7  1  0
  1 21  1  0
  1 22  1  0
  1 23  1  0
  2 24  1  0
  3 25  1  0
  4 26  1  0
  5 27  1  0
  5 28  1  0
  8 29  1  0
  9 30  1  0
 17 31  1  0
 18 32  1  0
 18 33  1  0
 18 34  1  0
 19 35  1  0
 19 36  1  0
 19 37  1  0
 20 38  1  0
M  END
>  <Name>  (719) 
Artelin

>  <PubChem ID>  (719) 
3085344

>  <CDB ID>  (719) 
CDB0719

>  <Smiles>  (719) 
CC1C2C(CC(=C3C(C2OC1=O)C(=C(C3=O)O)C)C)O

>  <Chemical class>  (719) 
Biscoumarins

>  <Natural source>  (719) 
Artemisia tridentata ssp. vaseyana, Sapium sebiferum

>  <Molecular Formula>  (719) 
C15H18O5

>  <InChI-Key>  (719) 
WAYMPCOVWDCPAY-UHFFFAOYSA-N

>  <Total Molweight>  (719) 
278.303

>  <cLogP>  (719) 
0.6035

>  <cLogS>  (719) 
-2.183

>  <H-Acceptors>  (719) 
5

>  <H-Donors>  (719) 
2

>  <Rotatable Bonds>  (719) 
0

>  <Polar Surface Area>  (719) 
83.83

$$$$
CDB0720
     RDKit          3D

 41 43  0  0  0  0  0  0  0  0999 V2000
    4.5878   -0.9319    0.9507 C   0  0  0  0  0  0  0  0  0  0  0  0
    3.9633   -0.9760   -0.3332 O   0  0  0  0  0  0  0  0  0  0  0  0
    2.6526   -0.5618   -0.3063 C   0  0  0  0  0  0  0  0  0  0  0  0
    2.2802    0.4719   -1.1805 C   0  0  0  0  0  0  0  0  0  0  0  0
    3.2221    1.1285   -2.0821 C   0  0  0  0  0  0  0  0  0  0  0  0
    2.8104    2.1141   -2.8845 C   0  0  0  0  0  0  0  0  0  0  0  0
    1.4165    2.5832   -2.9039 C   0  0  0  0  0  0  0  0  0  0  0  0
    1.0702    3.4926   -3.6482 O   0  0  0  0  0  0  0  0  0  0  0  0
    0.5353    1.9458   -2.0450 O   0  0  0  0  0  0  0  0  0  0  0  0
    0.9508    0.9011   -1.1862 C   0  0  0  0  0  0  0  0  0  0  0  0
   -0.0152    0.3200   -0.3601 C   0  0  0  0  0  0  0  0  0  0  0  0
   -1.2958    0.8027   -0.4400 O   0  0  0  0  0  0  0  0  0  0  0  0
   -2.2590   -0.0774    0.1813 C   0  0  2  0  0  0  0  0  0  0  0  0
   -3.6099    0.6817    0.2453 C   0  0  0  0  0  0  0  0  0  0  0  0
   -4.7360   -0.1956    0.7959 C   0  0  0  0  0  0  0  0  0  0  0  0
   -3.5305    1.9916    1.0366 C   0  0  0  0  0  0  0  0  0  0  0  0
   -3.9870    1.0272   -1.0998 O   0  0  0  0  0  0  0  0  0  0  0  0
   -1.7233   -0.5340    1.5356 C   0  0  0  0  0  0  0  0  0  0  0  0
   -0.5335   -1.3143    1.3596 O   0  0  0  0  0  0  0  0  0  0  0  0
    0.3571   -0.7104    0.5055 C   0  0  0  0  0  0  0  0  0  0  0  0
    1.6805   -1.1759    0.5037 C   0  0  0  0  0  0  0  0  0  0  0  0
    2.0285   -2.2075    1.3424 O   0  0  0  0  0  0  0  0  0  0  0  0
    1.8362   -3.4569    0.6772 C   0  0  0  0  0  0  0  0  0  0  0  0
    4.5319   -1.9125    1.4316 H   0  0  0  0  0  0  0  0  0  0  0  0
    4.1678   -0.1562    1.6016 H   0  0  0  0  0  0  0  0  0  0  0  0
    5.6460   -0.6995    0.7955 H   0  0  0  0  0  0  0  0  0  0  0  0
    4.2562    0.7996   -2.0908 H   0  0  0  0  0  0  0  0  0  0  0  0
    3.4873    2.6170   -3.5644 H   0  0  0  0  0  0  0  0  0  0  0  0
   -2.3693   -0.9386   -0.4935 H   0  0  0  0  0  0  0  0  0  0  0  0
   -5.7065    0.3020    0.6835 H   0  0  0  0  0  0  0  0  0  0  0  0
   -4.5975   -0.4312    1.8552 H   0  0  0  0  0  0  0  0  0  0  0  0
   -4.8060   -1.1348    0.2355 H   0  0  0  0  0  0  0  0  0  0  0  0
   -2.7701    2.6628    0.6226 H   0  0  0  0  0  0  0  0  0  0  0  0
   -4.4801    2.5363    0.9763 H   0  0  0  0  0  0  0  0  0  0  0  0
   -3.3048    1.8190    2.0931 H   0  0  0  0  0  0  0  0  0  0  0  0
   -3.2163    1.4765   -1.4992 H   0  0  0  0  0  0  0  0  0  0  0  0
   -2.4430   -1.1732    2.0542 H   0  0  0  0  0  0  0  0  0  0  0  0
   -1.4804    0.3101    2.1924 H   0  0  0  0  0  0  0  0  0  0  0  0
    2.1340   -4.2517    1.3675 H   0  0  0  0  0  0  0  0  0  0  0  0
    0.7840   -3.6128    0.4154 H   0  0  0  0  0  0  0  0  0  0  0  0
    2.4656   -3.5317   -0.2164 H   0  0  0  0  0  0  0  0  0  0  0  0
  1  2  1  0
  2  3  1  0
  3  4  1  0
  4  5  1  0
  5  6  2  0
  6  7  1  0
  7  8  2  0
  7  9  1  0
  9 10  1  0
 10 11  1  0
 11 12  1  0
 12 13  1  0
 13 14  1  0
 14 15  1  0
 14 16  1  0
 14 17  1  0
 13 18  1  0
 18 19  1  0
 19 20  1  0
 20 21  1  0
 21 22  1  0
 22 23  1  0
 21  3  2  0
 10  4  2  0
 20 11  2  0
  1 24  1  0
  1 25  1  0
  1 26  1  0
  5 27  1  0
  6 28  1  0
 13 29  1  6
 15 30  1  0
 15 31  1  0
 15 32  1  0
 16 33  1  0
 16 34  1  0
 16 35  1  0
 17 36  1  0
 18 37  1  0
 18 38  1  0
 23 39  1  0
 23 40  1  0
 23 41  1  0
M  END
>  <Name>  (720) 
Purpurenol

>  <PubChem ID>  (720) 
15689635

>  <CDB ID>  (720) 
CDB0720

>  <Smiles>  (720) 
COC1=C2C=CC(=O)OC2=C2O[C@H](C(C)(C)O)COC2=C1OC

>  <Chemical class>  (720) 
Biscoumarins

>  <Natural source>  (720) 
Pterocaulon purpurascens

>  <Molecular Formula>  (720) 
C16H18O7

>  <InChI-Key>  (720) 
CWLINRWSQJGKGK-VIFPVBQESA-N

>  <Total Molweight>  (720) 
322.312

>  <cLogP>  (720) 
1.4741

>  <cLogS>  (720) 
-2.946

>  <H-Acceptors>  (720) 
7

>  <H-Donors>  (720) 
1

>  <Rotatable Bonds>  (720) 
3

>  <Polar Surface Area>  (720) 
83.45

$$$$
CDB0721
     RDKit          3D

 28 30  0  0  0  0  0  0  0  0999 V2000
   -3.6429    0.0578    0.2034 C   0  0  0  0  0  0  0  0  0  0  0  0
   -2.6073   -0.7544   -0.3315 O   0  0  0  0  0  0  0  0  0  0  0  0
   -1.3097   -0.3572   -0.1535 C   0  0  0  0  0  0  0  0  0  0  0  0
   -0.8689    0.7835    0.5100 C   0  0  0  0  0  0  0  0  0  0  0  0
    0.4791    1.0953    0.6345 C   0  0  0  0  0  0  0  0  0  0  0  0
    1.4699    0.2870    0.1040 C   0  0  0  0  0  0  0  0  0  0  0  0
    1.0343   -0.8656   -0.5669 C   0  0  0  0  0  0  0  0  0  0  0  0
   -0.3255   -1.2010   -0.7050 C   0  0  0  0  0  0  0  0  0  0  0  0
   -0.6582   -2.4295   -1.4261 C   0  0  0  0  0  0  0  0  0  0  0  0
    0.3044   -3.2032   -1.9346 C   0  0  0  0  0  0  0  0  0  0  0  0
    1.7305   -2.8744   -1.8035 C   0  0  0  0  0  0  0  0  0  0  0  0
    2.5890   -3.6060   -2.2820 O   0  0  0  0  0  0  0  0  0  0  0  0
    2.0339   -1.7098   -1.1193 O   0  0  0  0  0  0  0  0  0  0  0  0
    2.8202    0.4746    0.1540 O   0  0  0  0  0  0  0  0  0  0  0  0
    3.3128    1.6267    0.8218 C   0  0  0  0  0  0  0  0  0  0  0  0
    0.6642    2.2592    1.3237 O   0  0  0  0  0  0  0  0  0  0  0  0
   -0.6828    2.6480    1.6192 C   0  0  0  0  0  0  0  0  0  0  0  0
   -1.6551    1.7254    1.1110 O   0  0  0  0  0  0  0  0  0  0  0  0
   -3.5776    0.1165    1.2944 H   0  0  0  0  0  0  0  0  0  0  0  0
   -4.5966   -0.4214   -0.0396 H   0  0  0  0  0  0  0  0  0  0  0  0
   -3.6498    1.0489   -0.2608 H   0  0  0  0  0  0  0  0  0  0  0  0
   -1.7023   -2.7023   -1.5413 H   0  0  0  0  0  0  0  0  0  0  0  0
    0.0780   -4.1162   -2.4715 H   0  0  0  0  0  0  0  0  0  0  0  0
    2.9761    2.5447    0.3299 H   0  0  0  0  0  0  0  0  0  0  0  0
    3.0481    1.6131    1.8838 H   0  0  0  0  0  0  0  0  0  0  0  0
    4.4053    1.6046    0.7580 H   0  0  0  0  0  0  0  0  0  0  0  0
   -0.7993    2.7205    2.7066 H   0  0  0  0  0  0  0  0  0  0  0  0
   -0.8699    3.6351    1.1813 H   0  0  0  0  0  0  0  0  0  0  0  0
  1  2  1  0
  2  3  1  0
  3  4  2  0
  4  5  1  0
  5  6  2  0
  6  7  1  0
  7  8  2  0
  8  9  1  0
  9 10  2  0
 10 11  1  0
 11 12  2  0
 11 13  1  0
  6 14  1  0
 14 15  1  0
  5 16  1  0
 16 17  1  0
 17 18  1  0
  8  3  1  0
 18  4  1  0
 13  7  1  0
  1 19  1  0
  1 20  1  0
  1 21  1  0
  9 22  1  0
 10 23  1  0
 15 24  1  0
 15 25  1  0
 15 26  1  0
 17 27  1  0
 17 28  1  0
M  END
>  <Name>  (721) 
Sabandin

>  <PubChem ID>  (721) 
46226658

>  <CDB ID>  (721) 
CDB0721

>  <Smiles>  (721) 
COC1=C2C(=C(C3=C1C=CC(=O)O3)OC)OCO2

>  <Chemical class>  (721) 
Biscoumarins

>  <Natural source>  (721) 
Ruta pinnata

>  <Molecular Formula>  (721) 
C12H10O6

>  <InChI-Key>  (721) 
LDCAQGBKMDSYGC-UHFFFAOYSA-N

>  <Total Molweight>  (721) 
250.205

>  <cLogP>  (721) 
1.4688

>  <cLogS>  (721) 
-3.117

>  <H-Acceptors>  (721) 
6

>  <H-Donors>  (721) 
0

>  <Rotatable Bonds>  (721) 
2

>  <Polar Surface Area>  (721) 
63.22

$$$$
CDB0722
     RDKit          3D

 64 69  0  0  0  0  0  0  0  0999 V2000
   -8.6553   -2.2402    0.1536 C   0  0  0  0  0  0  0  0  0  0  0  0
   -7.6776   -1.2947    0.8619 C   0  0  0  0  0  0  0  0  0  0  0  0
   -6.7093   -2.1086    1.6847 C   0  0  0  0  0  0  0  0  0  0  0  0
   -5.3838   -1.9736    1.5959 C   0  0  0  0  0  0  0  0  0  0  0  0
   -4.8523   -0.9854    0.6657 C   0  0  0  0  0  0  0  0  0  0  0  0
   -3.4805   -0.7173    0.5721 C   0  0  0  0  0  0  0  0  0  0  0  0
   -2.9752    0.2186   -0.3271 C   0  0  0  0  0  0  0  0  0  0  0  0
   -3.8576    0.9117   -1.1611 C   0  0  0  0  0  0  0  0  0  0  0  0
   -5.2338    0.6640   -1.0936 C   0  0  0  0  0  0  0  0  0  0  0  0
   -5.7261   -0.2855   -0.1745 C   0  0  0  0  0  0  0  0  0  0  0  0
   -7.0818   -0.4938   -0.1750 O   0  0  0  0  0  0  0  0  0  0  0  0
   -6.1754    1.2888   -1.8728 O   0  0  0  0  0  0  0  0  0  0  0  0
   -5.7313    2.2869   -2.7801 C   0  0  0  0  0  0  0  0  0  0  0  0
   -1.5408    0.4641   -0.3696 C   0  0  0  0  0  0  0  0  0  0  0  0
   -0.7032   -0.2164    0.4289 C   0  0  0  0  0  0  0  0  0  0  0  0
   -1.2161   -1.2595    1.3612 C   0  0  0  0  0  0  0  0  0  0  0  0
   -0.4608   -1.9654    2.0218 O   0  0  0  0  0  0  0  0  0  0  0  0
   -2.5937   -1.4288    1.4112 O   0  0  0  0  0  0  0  0  0  0  0  0
    0.7307    0.0427    0.4354 C   0  0  0  0  0  0  0  0  0  0  0  0
    1.5098   -0.2679   -0.6128 C   0  0  0  0  0  0  0  0  0  0  0  0
    2.9469   -0.0402   -0.5665 C   0  0  0  0  0  0  0  0  0  0  0  0
    3.7685   -0.3482   -1.6550 C   0  0  0  0  0  0  0  0  0  0  0  0
    5.1491   -0.1288   -1.5814 C   0  0  0  0  0  0  0  0  0  0  0  0
    5.7081    0.3999   -0.3994 C   0  0  0  0  0  0  0  0  0  0  0  0
    4.8956    0.7119    0.6969 C   0  0  0  0  0  0  0  0  0  0  0  0
    3.5174    0.4838    0.5910 C   0  0  0  0  0  0  0  0  0  0  0  0
    2.6921    0.8069    1.6915 O   0  0  0  0  0  0  0  0  0  0  0  0
    1.3120    0.6530    1.6642 C   0  0  0  0  0  0  0  0  0  0  0  0
    0.6070    1.0412    2.5901 O   0  0  0  0  0  0  0  0  0  0  0  0
    5.4946    1.2726    1.9015 C   0  0  0  0  0  0  0  0  0  0  0  0
    6.8247    1.3792    1.9545 C   0  0  0  0  0  0  0  0  0  0  0  0
    7.7311    0.9563    0.8246 C   0  0  0  0  0  0  0  0  0  0  0  0
    7.0636    0.6089   -0.4022 O   0  0  0  0  0  0  0  0  0  0  0  0
    8.5503   -0.2667    1.2526 C   0  0  0  0  0  0  0  0  0  0  0  0
    8.6753    2.1134    0.4765 C   0  0  0  0  0  0  0  0  0  0  0  0
    6.0339   -0.3941   -2.5967 O   0  0  0  0  0  0  0  0  0  0  0  0
    5.5233   -0.9716   -3.7893 C   0  0  0  0  0  0  0  0  0  0  0  0
   -8.4543   -0.3406    1.7765 C   0  0  0  0  0  0  0  0  0  0  0  0
   -9.3733   -1.6762   -0.4535 H   0  0  0  0  0  0  0  0  0  0  0  0
   -9.2163   -2.8587    0.8628 H   0  0  0  0  0  0  0  0  0  0  0  0
   -8.1235   -2.9052   -0.5377 H   0  0  0  0  0  0  0  0  0  0  0  0
   -7.1228   -2.8243    2.3906 H   0  0  0  0  0  0  0  0  0  0  0  0
   -4.7097   -2.5643    2.2064 H   0  0  0  0  0  0  0  0  0  0  0  0
   -3.4564    1.6405   -1.8574 H   0  0  0  0  0  0  0  0  0  0  0  0
   -5.2508    3.1166   -2.2513 H   0  0  0  0  0  0  0  0  0  0  0  0
   -5.0660    1.8619   -3.5387 H   0  0  0  0  0  0  0  0  0  0  0  0
   -6.6104    2.6860   -3.2953 H   0  0  0  0  0  0  0  0  0  0  0  0
   -1.1776    1.2343   -1.0436 H   0  0  0  0  0  0  0  0  0  0  0  0
    1.0968   -0.7238   -1.5078 H   0  0  0  0  0  0  0  0  0  0  0  0
    3.3168   -0.7579   -2.5523 H   0  0  0  0  0  0  0  0  0  0  0  0
    4.8662    1.5747    2.7320 H   0  0  0  0  0  0  0  0  0  0  0  0
    7.2891    1.7731    2.8548 H   0  0  0  0  0  0  0  0  0  0  0  0
    7.8967   -1.1216    1.4640 H   0  0  0  0  0  0  0  0  0  0  0  0
    9.1516   -0.0654    2.1460 H   0  0  0  0  0  0  0  0  0  0  0  0
    9.2235   -0.5862    0.4484 H   0  0  0  0  0  0  0  0  0  0  0  0
    9.3482    1.8352   -0.3433 H   0  0  0  0  0  0  0  0  0  0  0  0
    9.2860    2.4182    1.3336 H   0  0  0  0  0  0  0  0  0  0  0  0
    8.1107    2.9867    0.1281 H   0  0  0  0  0  0  0  0  0  0  0  0
    4.8183   -0.2956   -4.2840 H   0  0  0  0  0  0  0  0  0  0  0  0
    5.0657   -1.9467   -3.5922 H   0  0  0  0  0  0  0  0  0  0  0  0
    6.3644   -1.1310   -4.4709 H   0  0  0  0  0  0  0  0  0  0  0  0
   -9.1712    0.2555    1.1997 H   0  0  0  0  0  0  0  0  0  0  0  0
   -9.0026   -0.8774    2.5584 H   0  0  0  0  0  0  0  0  0  0  0  0
   -7.7787    0.3750    2.2603 H   0  0  0  0  0  0  0  0  0  0  0  0
  1  2  1  0
  2  3  1  0
  3  4  2  0
  4  5  1  0
  5  6  1  0
  6  7  2  0
  7  8  1  0
  8  9  2  0
  9 10  1  0
 10 11  1  0
  9 12  1  0
 12 13  1  0
  7 14  1  0
 14 15  2  0
 15 16  1  0
 16 17  2  0
 16 18  1  0
 15 19  1  0
 19 20  2  0
 20 21  1  0
 21 22  1  0
 22 23  2  0
 23 24  1  0
 24 25  2  0
 25 26  1  0
 26 27  1  0
 27 28  1  0
 28 29  2  0
 25 30  1  0
 30 31  2  0
 31 32  1  0
 32 33  1  0
 32 34  1  0
 32 35  1  0
 23 36  1  0
 36 37  1  0
  2 38  1  0
 11  2  1  0
 10  5  2  0
 18  6  1  0
 28 19  1  0
 26 21  2  0
 33 24  1  0
  1 39  1  0
  1 40  1  0
  1 41  1  0
  3 42  1  0
  4 43  1  0
  8 44  1  0
 13 45  1  0
 13 46  1  0
 13 47  1  0
 14 48  1  0
 20 49  1  0
 22 50  1  0
 30 51  1  0
 31 52  1  0
 34 53  1  0
 34 54  1  0
 34 55  1  0
 35 56  1  0
 35 57  1  0
 35 58  1  0
 37 59  1  0
 37 60  1  0
 37 61  1  0
 38 62  1  0
 38 63  1  0
 38 64  1  0
M  END
>  <Name>  (722) 
Toddasiatin

>  <PubChem ID>  (722) 
102066705

>  <CDB ID>  (722) 
CDB0722

>  <Smiles>  (722) 
CC1(C=CC2=C3C(=CC(=C2O1)OC)C=C(C(=O)O3)C4=CC5=CC(=C6C(=C5OC4=O)C=CC(O6)(C)C)OC)C

>  <Chemical class>  (722) 
Biscoumarins

>  <Natural source>  (722) 
Toddalia asiatica

>  <Molecular Formula>  (722) 
C30H26O8

>  <InChI-Key>  (722) 
BLTGXURRTDMAEA-UHFFFAOYSA-N

>  <Total Molweight>  (722) 
514.528

>  <cLogP>  (722) 
4.8114

>  <cLogS>  (722) 
-6.558

>  <H-Acceptors>  (722) 
8

>  <H-Donors>  (722) 
0

>  <Rotatable Bonds>  (722) 
3

>  <Polar Surface Area>  (722) 
89.52

$$$$
CDB0723
     RDKit          3D

 55 58  0  0  0  0  0  0  0  0999 V2000
   -2.6907    0.7695   -4.6361 C   0  0  0  0  0  0  0  0  0  0  0  0
   -1.8909    0.7052   -3.3585 C   0  0  0  0  0  0  0  0  0  0  0  0
   -0.6351    0.0551   -3.4283 C   0  0  0  0  0  0  0  0  0  0  0  0
    0.1984   -0.0632   -2.3141 C   0  0  0  0  0  0  0  0  0  0  0  0
   -0.2297    0.4658   -1.0897 C   0  0  0  0  0  0  0  0  0  0  0  0
   -1.4798    1.1130   -1.0258 C   0  0  0  0  0  0  0  0  0  0  0  0
   -2.3311    1.2589   -2.1334 C   0  0  0  0  0  0  0  0  0  0  0  0
   -3.6072    1.9848   -1.9191 C   0  0  0  0  0  0  0  0  0  0  0  0
   -3.9168    2.4334   -0.6946 C   0  0  0  0  0  0  0  0  0  0  0  0
   -3.0553    2.2382    0.4706 C   0  0  0  0  0  0  0  0  0  0  0  0
   -3.4067    2.6157    1.5819 O   0  0  0  0  0  0  0  0  0  0  0  0
   -1.8559    1.6004    0.2507 O   0  0  0  0  0  0  0  0  0  0  0  0
   -4.3948    2.1508   -3.0361 O   0  0  0  0  0  0  0  0  0  0  0  0
   -5.6154    2.8725   -2.9182 C   0  0  0  0  0  0  0  0  0  0  0  0
    0.6351    0.3813    0.1117 C   0  0  0  0  0  0  0  0  0  0  0  0
    0.7666   -0.7695    0.8016 C   0  0  0  0  0  0  0  0  0  0  0  0
    1.7565   -0.8956    1.8928 C   0  0  0  0  0  0  0  0  0  0  0  0
    2.1767   -2.0938    2.5202 C   0  0  0  0  0  0  0  0  0  0  0  0
    3.1198   -2.0307    3.5797 C   0  0  0  0  0  0  0  0  0  0  0  0
    3.6582   -0.8204    4.0136 C   0  0  0  0  0  0  0  0  0  0  0  0
    3.2705    0.3479    3.3752 C   0  0  0  0  0  0  0  0  0  0  0  0
    2.3497    0.2937    2.3280 C   0  0  0  0  0  0  0  0  0  0  0  0
    2.0878    1.5264    1.7019 O   0  0  0  0  0  0  0  0  0  0  0  0
    1.3526    1.6082    0.5330 C   0  0  0  0  0  0  0  0  0  0  0  0
    1.2729    2.6623   -0.0909 O   0  0  0  0  0  0  0  0  0  0  0  0
    4.5657   -0.6528    5.0204 O   0  0  0  0  0  0  0  0  0  0  0  0
    5.0272   -1.8252    5.6796 C   0  0  0  0  0  0  0  0  0  0  0  0
    1.7091   -3.4757    2.1232 C   0  0  0  0  0  0  0  0  0  0  0  0
    2.0939   -3.7850    0.7930 O   0  0  0  0  0  0  0  0  0  0  0  0
    0.0681   -1.9158    0.4588 O   0  0  0  0  0  0  0  0  0  0  0  0
   -1.2171   -1.9462    1.0893 C   0  0  0  0  0  0  0  0  0  0  0  0
    1.4318   -0.6617   -2.3212 O   0  0  0  0  0  0  0  0  0  0  0  0
    1.9095   -1.1850   -3.5533 C   0  0  0  0  0  0  0  0  0  0  0  0
   -2.1835    0.2511   -5.4577 H   0  0  0  0  0  0  0  0  0  0  0  0
   -2.8240    1.8081   -4.9540 H   0  0  0  0  0  0  0  0  0  0  0  0
   -3.6595    0.2765   -4.5089 H   0  0  0  0  0  0  0  0  0  0  0  0
   -0.3246   -0.3508   -4.3874 H   0  0  0  0  0  0  0  0  0  0  0  0
   -4.8296    2.9687   -0.4714 H   0  0  0  0  0  0  0  0  0  0  0  0
   -5.4316    3.9029   -2.5974 H   0  0  0  0  0  0  0  0  0  0  0  0
   -6.3051    2.3651   -2.2361 H   0  0  0  0  0  0  0  0  0  0  0  0
   -6.0828    2.9055   -3.9068 H   0  0  0  0  0  0  0  0  0  0  0  0
    3.4306   -2.9617    4.0466 H   0  0  0  0  0  0  0  0  0  0  0  0
    3.6960    1.3011    3.6775 H   0  0  0  0  0  0  0  0  0  0  0  0
    5.5465   -2.4914    4.9828 H   0  0  0  0  0  0  0  0  0  0  0  0
    4.2051   -2.3431    6.1846 H   0  0  0  0  0  0  0  0  0  0  0  0
    5.7465   -1.5175    6.4446 H   0  0  0  0  0  0  0  0  0  0  0  0
    0.6283   -3.5863    2.2449 H   0  0  0  0  0  0  0  0  0  0  0  0
    2.1590   -4.2414    2.7646 H   0  0  0  0  0  0  0  0  0  0  0  0
    1.5998   -3.1671    0.2205 H   0  0  0  0  0  0  0  0  0  0  0  0
   -1.6417   -2.9418    0.9301 H   0  0  0  0  0  0  0  0  0  0  0  0
   -1.8958   -1.2166    0.6410 H   0  0  0  0  0  0  0  0  0  0  0  0
   -1.1398   -1.7762    2.1688 H   0  0  0  0  0  0  0  0  0  0  0  0
    2.9018   -1.6097   -3.3733 H   0  0  0  0  0  0  0  0  0  0  0  0
    1.2636   -1.9913   -3.9157 H   0  0  0  0  0  0  0  0  0  0  0  0
    2.0170   -0.3943   -4.3031 H   0  0  0  0  0  0  0  0  0  0  0  0
  1  2  1  0
  2  3  1  0
  3  4  2  0
  4  5  1  0
  5  6  2  0
  6  7  1  0
  7  8  1  0
  8  9  2  0
  9 10  1  0
 10 11  2  0
 10 12  1  0
  8 13  1  0
 13 14  1  0
  5 15  1  0
 15 16  2  0
 16 17  1  0
 17 18  1  0
 18 19  2  0
 19 20  1  0
 20 21  2  0
 21 22  1  0
 22 23  1  0
 23 24  1  0
 24 25  2  0
 20 26  1  0
 26 27  1  0
 18 28  1  0
 28 29  1  0
 16 30  1  0
 30 31  1  0
  4 32  1  0
 32 33  1  0
  7  2  2  0
 12  6  1  0
 24 15  1  0
 22 17  2  0
  1 34  1  0
  1 35  1  0
  1 36  1  0
  3 37  1  0
  9 38  1  0
 14 39  1  0
 14 40  1  0
 14 41  1  0
 19 42  1  0
 21 43  1  0
 27 44  1  0
 27 45  1  0
 27 46  1  0
 28 47  1  0
 28 48  1  0
 29 49  1  0
 31 50  1  0
 31 51  1  0
 31 52  1  0
 33 53  1  0
 33 54  1  0
 33 55  1  0
M  END
>  <Name>  (723) 
Aflavarin

>  <PubChem ID>  (723) 
44584646

>  <CDB ID>  (723) 
CDB0723

>  <Smiles>  (723) 
CC1=CC(=C(C2=C1C(=CC(=O)O2)OC)C3=C(C4=C(C=C(C=C4OC3=O)OC)CO)OC)OC

>  <Chemical class>  (723) 
Biscoumarins

>  <Natural source>  (723) 
Aspergillus flavus

>  <Molecular Formula>  (723) 
C24H22O9

>  <InChI-Key>  (723) 
PQHCPIZEGQBDDY-UHFFFAOYSA-N

>  <Total Molweight>  (723) 
454.43

>  <cLogP>  (723) 
2.2884

>  <cLogS>  (723) 
-3.667

>  <H-Acceptors>  (723) 
9

>  <H-Donors>  (723) 
1

>  <Rotatable Bonds>  (723) 
6

>  <Polar Surface Area>  (723) 
109.75

$$$$
CDB0724
     RDKit          3D

 42 45  0  0  0  0  0  0  0  0999 V2000
   -4.8573    3.4784   -0.3399 C   0  0  0  0  0  0  0  0  0  0  0  0
   -3.5341    3.0449   -0.6360 O   0  0  0  0  0  0  0  0  0  0  0  0
   -3.2007    1.7681   -0.2589 C   0  0  0  0  0  0  0  0  0  0  0  0
   -1.9056    1.3669   -0.6280 C   0  0  0  0  0  0  0  0  0  0  0  0
   -1.4137    0.0938   -0.3207 C   0  0  0  0  0  0  0  0  0  0  0  0
   -2.2578   -0.7747    0.3827 C   0  0  0  0  0  0  0  0  0  0  0  0
   -3.5504   -0.4006    0.7606 C   0  0  0  0  0  0  0  0  0  0  0  0
   -4.0217    0.8776    0.4364 C   0  0  0  0  0  0  0  0  0  0  0  0
   -4.3815   -1.3548    1.4800 C   0  0  0  0  0  0  0  0  0  0  0  0
   -3.8973   -2.5639    1.7781 C   0  0  0  0  0  0  0  0  0  0  0  0
   -2.5337   -2.9814    1.4129 C   0  0  0  0  0  0  0  0  0  0  0  0
   -2.1121   -4.0879    1.7266 O   0  0  0  0  0  0  0  0  0  0  0  0
   -1.7659   -2.0585    0.7191 O   0  0  0  0  0  0  0  0  0  0  0  0
   -0.0685   -0.3322   -0.7434 C   0  0  0  0  0  0  0  0  0  0  0  0
    1.0013    0.0899   -0.0510 C   0  0  0  0  0  0  0  0  0  0  0  0
    2.3398   -0.3204   -0.4445 C   0  0  0  0  0  0  0  0  0  0  0  0
    3.4790    0.1032    0.2503 C   0  0  0  0  0  0  0  0  0  0  0  0
    4.7522   -0.3145   -0.1588 C   0  0  0  0  0  0  0  0  0  0  0  0
    4.8660   -1.1626   -1.2737 C   0  0  0  0  0  0  0  0  0  0  0  0
    3.7395   -1.5899   -1.9725 C   0  0  0  0  0  0  0  0  0  0  0  0
    2.4885   -1.1587   -1.5440 C   0  0  0  0  0  0  0  0  0  0  0  0
    1.3692   -1.6043   -2.2699 O   0  0  0  0  0  0  0  0  0  0  0  0
    0.0747   -1.2271   -1.9235 C   0  0  0  0  0  0  0  0  0  0  0  0
   -0.8935   -1.6210   -2.5671 O   0  0  0  0  0  0  0  0  0  0  0  0
    6.1098   -1.5728   -1.6756 O   0  0  0  0  0  0  0  0  0  0  0  0
    5.9279    0.0413    0.4489 O   0  0  0  0  0  0  0  0  0  0  0  0
    5.8517    0.8888    1.5856 C   0  0  0  0  0  0  0  0  0  0  0  0
   -1.1109    2.2536   -1.3140 O   0  0  0  0  0  0  0  0  0  0  0  0
   -5.0274    3.5110    0.7412 H   0  0  0  0  0  0  0  0  0  0  0  0
   -5.6004    2.8486   -0.8400 H   0  0  0  0  0  0  0  0  0  0  0  0
   -4.9690    4.4963   -0.7256 H   0  0  0  0  0  0  0  0  0  0  0  0
   -5.0272    1.1564    0.7340 H   0  0  0  0  0  0  0  0  0  0  0  0
   -5.3905   -1.0744    1.7621 H   0  0  0  0  0  0  0  0  0  0  0  0
   -4.4870   -3.3011    2.3096 H   0  0  0  0  0  0  0  0  0  0  0  0
    0.8974    0.7461    0.8073 H   0  0  0  0  0  0  0  0  0  0  0  0
    3.3539    0.7582    1.1058 H   0  0  0  0  0  0  0  0  0  0  0  0
    3.8167   -2.2438   -2.8340 H   0  0  0  0  0  0  0  0  0  0  0  0
    6.0210   -2.1592   -2.4431 H   0  0  0  0  0  0  0  0  0  0  0  0
    5.2937    0.4114    2.3978 H   0  0  0  0  0  0  0  0  0  0  0  0
    5.4192    1.8604    1.3255 H   0  0  0  0  0  0  0  0  0  0  0  0
    6.8715    1.0639    1.9416 H   0  0  0  0  0  0  0  0  0  0  0  0
   -1.6667    3.0448   -1.4574 H   0  0  0  0  0  0  0  0  0  0  0  0
  1  2  1  0
  2  3  1  0
  3  4  1  0
  4  5  2  0
  5  6  1  0
  6  7  2  0
  7  8  1  0
  7  9  1  0
  9 10  2  0
 10 11  1  0
 11 12  2  0
 11 13  1  0
  5 14  1  0
 14 15  2  0
 15 16  1  0
 16 17  1  0
 17 18  2  0
 18 19  1  0
 19 20  2  0
 20 21  1  0
 21 22  1  0
 22 23  1  0
 23 24  2  0
 19 25  1  0
 18 26  1  0
 26 27  1  0
  4 28  1  0
  8  3  2  0
 13  6  1  0
 23 14  1  0
 21 16  2  0
  1 29  1  0
  1 30  1  0
  1 31  1  0
  8 32  1  0
  9 33  1  0
 10 34  1  0
 15 35  1  0
 17 36  1  0
 20 37  1  0
 25 38  1  0
 27 39  1  0
 27 40  1  0
 27 41  1  0
 28 42  1  0
M  END
>  <Name>  (724) 
Ipomopsin

>  <PubChem ID>  (724) 
5491777

>  <CDB ID>  (724) 
CDB0724

>  <Smiles>  (724) 
COC1=C(C(=C2C(=C1)C=CC(=O)O2)C3=CC4=CC(=C(C=C4OC3=O)O)OC)O

>  <Chemical class>  (724) 
Biscoumarins

>  <Natural source>  (724) 
Ipomopsis aggregata

>  <Molecular Formula>  (724) 
C20H14O8

>  <InChI-Key>  (724) 
VASZAOYNXAEKGP-UHFFFAOYSA-N

>  <Total Molweight>  (724) 
382.323

>  <cLogP>  (724) 
1.759

>  <cLogS>  (724) 
-3.525

>  <H-Acceptors>  (724) 
8

>  <H-Donors>  (724) 
2

>  <Rotatable Bonds>  (724) 
3

>  <Polar Surface Area>  (724) 
111.52

$$$$
CDB0725
     RDKit          3D

 36 39  0  0  0  0  0  0  0  0999 V2000
    1.7915    0.7418    1.3352 C   0  0  0  0  0  0  0  0  0  0  0  0
    2.9407    1.2682    1.7695 C   0  0  0  0  0  0  0  0  0  0  0  0
    4.1965    1.1655    1.0115 C   0  0  0  0  0  0  0  0  0  0  0  0
    5.2314    1.6617    1.4382 O   0  0  0  0  0  0  0  0  0  0  0  0
    4.1354    0.4817   -0.1923 O   0  0  0  0  0  0  0  0  0  0  0  0
    2.9313   -0.0804   -0.6681 C   0  0  0  0  0  0  0  0  0  0  0  0
    1.7363    0.0275    0.0586 C   0  0  0  0  0  0  0  0  0  0  0  0
    0.5528   -0.5518   -0.4646 C   0  0  0  0  0  0  0  0  0  0  0  0
    0.6382   -1.2234   -1.7010 C   0  0  0  0  0  0  0  0  0  0  0  0
    1.8483   -1.3109   -2.3933 C   0  0  0  0  0  0  0  0  0  0  0  0
    3.0028   -0.7428   -1.8894 C   0  0  0  0  0  0  0  0  0  0  0  0
    1.9032   -1.9687   -3.5886 O   0  0  0  0  0  0  0  0  0  0  0  0
   -0.4333   -1.8346   -2.3059 O   0  0  0  0  0  0  0  0  0  0  0  0
   -0.7335   -0.4705    0.2581 C   0  0  0  0  0  0  0  0  0  0  0  0
   -1.1176   -1.4895    1.1531 C   0  0  0  0  0  0  0  0  0  0  0  0
   -2.3321   -1.4272    1.8403 C   0  0  0  0  0  0  0  0  0  0  0  0
   -3.1985   -0.3648    1.6657 C   0  0  0  0  0  0  0  0  0  0  0  0
   -2.8315    0.6451    0.7822 C   0  0  0  0  0  0  0  0  0  0  0  0
   -1.6222    0.6183    0.0717 C   0  0  0  0  0  0  0  0  0  0  0  0
   -1.3537    1.7358   -0.8349 C   0  0  0  0  0  0  0  0  0  0  0  0
   -2.2335    2.7340   -0.9612 C   0  0  0  0  0  0  0  0  0  0  0  0
   -3.5005    2.7735   -0.2160 C   0  0  0  0  0  0  0  0  0  0  0  0
   -4.2831    3.7050   -0.3543 O   0  0  0  0  0  0  0  0  0  0  0  0
   -3.7485    1.7079    0.6346 O   0  0  0  0  0  0  0  0  0  0  0  0
   -2.6802   -2.4288    2.7006 O   0  0  0  0  0  0  0  0  0  0  0  0
   -0.3503   -2.5998    1.4104 O   0  0  0  0  0  0  0  0  0  0  0  0
    0.8945    0.8464    1.9364 H   0  0  0  0  0  0  0  0  0  0  0  0
    3.0043    1.8015    2.7109 H   0  0  0  0  0  0  0  0  0  0  0  0
    3.9387   -0.8146   -2.4346 H   0  0  0  0  0  0  0  0  0  0  0  0
    0.9902   -2.2798   -3.7536 H   0  0  0  0  0  0  0  0  0  0  0  0
   -1.2356   -1.7133   -1.7678 H   0  0  0  0  0  0  0  0  0  0  0  0
   -4.1398   -0.3239    2.2047 H   0  0  0  0  0  0  0  0  0  0  0  0
   -0.4345    1.7571   -1.4106 H   0  0  0  0  0  0  0  0  0  0  0  0
   -2.0549    3.5713   -1.6258 H   0  0  0  0  0  0  0  0  0  0  0  0
   -1.9340   -3.0613    2.6750 H   0  0  0  0  0  0  0  0  0  0  0  0
    0.4811   -2.5565    0.9055 H   0  0  0  0  0  0  0  0  0  0  0  0
  1  2  2  0
  2  3  1  0
  3  4  2  0
  3  5  1  0
  5  6  1  0
  6  7  2  0
  7  8  1  0
  8  9  2  0
  9 10  1  0
 10 11  2  0
 10 12  1  0
  9 13  1  0
  8 14  1  0
 14 15  2  0
 15 16  1  0
 16 17  2  0
 17 18  1  0
 18 19  2  0
 19 20  1  0
 20 21  2  0
 21 22  1  0
 22 23  2  0
 22 24  1  0
 16 25  1  0
 15 26  1  0
  7  1  1  0
 11  6  1  0
 19 14  1  0
 24 18  1  0
  1 27  1  0
  2 28  1  0
 11 29  1  0
 12 30  1  0
 13 31  1  0
 17 32  1  0
 20 33  1  0
 21 34  1  0
 25 35  1  0
 26 36  1  0
M  END
>  <Name>  (725) 
Euphorbetin

>  <PubChem ID>  (725) 
5317297

>  <CDB ID>  (725) 
CDB0725

>  <Smiles>  (725) 
C1=CC(=O)OC2=C1C(=C(C(=C2)O)O)C3=C(C(=CC4=C3C=CC(=O)O4)O)O

>  <Chemical class>  (725) 
Biscoumarins

>  <Natural source>  (725) 
Euphorbia lathyris

>  <Molecular Formula>  (725) 
C18H10O8

>  <InChI-Key>  (725) 
MFAPGDLENWJYSK-UHFFFAOYSA-N

>  <Total Molweight>  (725) 
354.269

>  <cLogP>  (725) 
1.6116

>  <cLogS>  (725) 
-4.026

>  <H-Acceptors>  (725) 
8

>  <H-Donors>  (725) 
4

>  <Rotatable Bonds>  (725) 
1

>  <Polar Surface Area>  (725) 
133.52

$$$$
CDB0726
     RDKit          3D

 48 51  0  0  0  0  0  0  0  0999 V2000
   -1.2282   -1.7441    0.0702 C   0  0  0  0  0  0  0  0  0  0  0  0
   -1.6402   -0.3901   -0.4673 C   0  0  0  0  0  0  0  0  0  0  0  0
   -0.6271    0.5147   -0.9229 C   0  0  0  0  0  0  0  0  0  0  0  0
   -1.0062    1.7780   -1.4188 C   0  0  0  0  0  0  0  0  0  0  0  0
   -2.3361    2.1574   -1.4765 C   0  0  0  0  0  0  0  0  0  0  0  0
   -3.3093    1.2639   -1.0357 C   0  0  0  0  0  0  0  0  0  0  0  0
   -3.0140   -0.0112   -0.5288 C   0  0  0  0  0  0  0  0  0  0  0  0
   -4.1763   -0.8388   -0.1091 C   0  0  0  0  0  0  0  0  0  0  0  0
   -5.4176   -0.3448   -0.2219 C   0  0  0  0  0  0  0  0  0  0  0  0
   -5.7080    0.9898   -0.7449 C   0  0  0  0  0  0  0  0  0  0  0  0
   -6.8621    1.3948   -0.8220 O   0  0  0  0  0  0  0  0  0  0  0  0
   -4.6296    1.7497   -1.1378 O   0  0  0  0  0  0  0  0  0  0  0  0
   -3.8796   -2.0923    0.3763 O   0  0  0  0  0  0  0  0  0  0  0  0
   -4.9405   -2.9475    0.7844 C   0  0  0  0  0  0  0  0  0  0  0  0
   -0.0396    2.6537   -1.8415 O   0  0  0  0  0  0  0  0  0  0  0  0
    0.8153    0.1596   -0.9053 C   0  0  0  0  0  0  0  0  0  0  0  0
    1.6679    0.4894    0.1978 C   0  0  0  0  0  0  0  0  0  0  0  0
    3.0525    0.1491    0.1549 C   0  0  0  0  0  0  0  0  0  0  0  0
    3.5179   -0.5166   -0.9897 C   0  0  0  0  0  0  0  0  0  0  0  0
    2.7011   -0.8500   -2.0674 C   0  0  0  0  0  0  0  0  0  0  0  0
    1.3602   -0.5097   -2.0192 C   0  0  0  0  0  0  0  0  0  0  0  0
    0.5455   -0.8415   -3.0707 O   0  0  0  0  0  0  0  0  0  0  0  0
    4.8643   -0.9088   -1.1413 O   0  0  0  0  0  0  0  0  0  0  0  0
    5.8019   -0.6535   -0.1663 C   0  0  0  0  0  0  0  0  0  0  0  0
    6.9754   -0.9890   -0.2770 O   0  0  0  0  0  0  0  0  0  0  0  0
    5.3344    0.0470    1.0295 C   0  0  0  0  0  0  0  0  0  0  0  0
    4.0631    0.4333    1.2085 C   0  0  0  0  0  0  0  0  0  0  0  0
    3.6016    1.0964    2.3230 O   0  0  0  0  0  0  0  0  0  0  0  0
    4.5130    1.4158    3.3674 C   0  0  0  0  0  0  0  0  0  0  0  0
    1.0773    1.2034    1.3950 C   0  0  0  0  0  0  0  0  0  0  0  0
   -1.6359   -2.5408   -0.5602 H   0  0  0  0  0  0  0  0  0  0  0  0
   -0.1476   -1.9010    0.0961 H   0  0  0  0  0  0  0  0  0  0  0  0
   -1.5654   -1.8578    1.1056 H   0  0  0  0  0  0  0  0  0  0  0  0
   -2.6334    3.1301   -1.8535 H   0  0  0  0  0  0  0  0  0  0  0  0
   -6.3029   -0.8956    0.0649 H   0  0  0  0  0  0  0  0  0  0  0  0
   -5.6047   -3.1754   -0.0555 H   0  0  0  0  0  0  0  0  0  0  0  0
   -4.5001   -3.8873    1.1302 H   0  0  0  0  0  0  0  0  0  0  0  0
   -5.4974   -2.5092    1.6187 H   0  0  0  0  0  0  0  0  0  0  0  0
   -0.4641    3.4328   -2.2343 H   0  0  0  0  0  0  0  0  0  0  0  0
    3.1250   -1.3688   -2.9205 H   0  0  0  0  0  0  0  0  0  0  0  0
    1.0843   -1.2110   -3.7881 H   0  0  0  0  0  0  0  0  0  0  0  0
    6.1154    0.2239    1.7563 H   0  0  0  0  0  0  0  0  0  0  0  0
    4.9388    0.5078    3.8062 H   0  0  0  0  0  0  0  0  0  0  0  0
    3.9563    1.9391    4.1505 H   0  0  0  0  0  0  0  0  0  0  0  0
    5.3005    2.0861    3.0084 H   0  0  0  0  0  0  0  0  0  0  0  0
    1.5378    2.1896    1.5118 H   0  0  0  0  0  0  0  0  0  0  0  0
    1.2148    0.6015    2.2992 H   0  0  0  0  0  0  0  0  0  0  0  0
    0.0016    1.3778    1.3213 H   0  0  0  0  0  0  0  0  0  0  0  0
  1  2  1  0
  2  3  1  0
  3  4  2  0
  4  5  1  0
  5  6  2  0
  6  7  1  0
  7  8  1  0
  8  9  2  0
  9 10  1  0
 10 11  2  0
 10 12  1  0
  8 13  1  0
 13 14  1  0
  4 15  1  0
  3 16  1  0
 16 17  1  0
 17 18  2  0
 18 19  1  0
 19 20  2  0
 20 21  1  0
 21 22  1  0
 19 23  1  0
 23 24  1  0
 24 25  2  0
 24 26  1  0
 26 27  2  0
 27 28  1  0
 28 29  1  0
 17 30  1  0
  7  2  2  0
 12  6  1  0
 21 16  2  0
 27 18  1  0
  1 31  1  0
  1 32  1  0
  1 33  1  0
  5 34  1  0
  9 35  1  0
 14 36  1  0
 14 37  1  0
 14 38  1  0
 15 39  1  0
 20 40  1  0
 22 41  1  0
 26 42  1  0
 29 43  1  0
 29 44  1  0
 29 45  1  0
 30 46  1  0
 30 47  1  0
 30 48  1  0
M  END
>  <Name>  (726) 
Isokotanin C

>  <PubChem ID>  (726) 
10476651

>  <CDB ID>  (726) 
CDB0726

>  <Smiles>  (726) 
CC1=C(C(=CC2=C1C(=CC(=O)O2)OC)O)C3=C(C4=C(C=C3O)OC(=O)C=C4OC)C

>  <Chemical class>  (726) 
Biscoumarins

>  <Natural source>  (726) 
Aspergillus alliaceus

>  <Molecular Formula>  (726) 
C22H18O8

>  <InChI-Key>  (726) 
KUAZKXCKFDVOGA-UHFFFAOYSA-N

>  <Total Molweight>  (726) 
410.377

>  <cLogP>  (726) 
3.0822

>  <cLogS>  (726) 
-4.628

>  <H-Acceptors>  (726) 
8

>  <H-Donors>  (726) 
2

>  <Rotatable Bonds>  (726) 
3

>  <Polar Surface Area>  (726) 
111.52

$$$$
CDB0727
     RDKit          3D

 51 54  0  0  0  0  0  0  0  0999 V2000
    1.4221    1.4718   -0.5761 C   0  0  0  0  0  0  0  0  0  0  0  0
    1.7331    0.1168    0.0233 C   0  0  0  0  0  0  0  0  0  0  0  0
    0.6760   -0.6316    0.6357 C   0  0  0  0  0  0  0  0  0  0  0  0
    0.9602   -1.8946    1.1920 C   0  0  0  0  0  0  0  0  0  0  0  0
    2.2393   -2.4224    1.1589 C   0  0  0  0  0  0  0  0  0  0  0  0
    3.2570   -1.6801    0.5646 C   0  0  0  0  0  0  0  0  0  0  0  0
    3.0559   -0.4156   -0.0103 C   0  0  0  0  0  0  0  0  0  0  0  0
    4.2555    0.2407   -0.5953 C   0  0  0  0  0  0  0  0  0  0  0  0
    5.4397   -0.3867   -0.5570 C   0  0  0  0  0  0  0  0  0  0  0  0
    5.6312   -1.7085    0.0391 C   0  0  0  0  0  0  0  0  0  0  0  0
    6.7357   -2.2396    0.0434 O   0  0  0  0  0  0  0  0  0  0  0  0
    4.5194   -2.3092    0.5848 O   0  0  0  0  0  0  0  0  0  0  0  0
    4.0524    1.4852   -1.1473 O   0  0  0  0  0  0  0  0  0  0  0  0
    5.1555    2.1809   -1.7153 C   0  0  0  0  0  0  0  0  0  0  0  0
   -0.0508   -2.6195    1.7678 O   0  0  0  0  0  0  0  0  0  0  0  0
   -0.7155   -0.1104    0.7217 C   0  0  0  0  0  0  0  0  0  0  0  0
   -1.0688    0.6915    1.8361 C   0  0  0  0  0  0  0  0  0  0  0  0
   -2.3627    1.1810    1.9471 C   0  0  0  0  0  0  0  0  0  0  0  0
   -3.3045    0.8703    0.9658 C   0  0  0  0  0  0  0  0  0  0  0  0
   -3.0217    0.0800   -0.1563 C   0  0  0  0  0  0  0  0  0  0  0  0
   -1.6934   -0.4156   -0.2834 C   0  0  0  0  0  0  0  0  0  0  0  0
   -1.2921   -1.2704   -1.4671 C   0  0  0  0  0  0  0  0  0  0  0  0
   -4.1479   -0.1585   -1.0977 C   0  0  0  0  0  0  0  0  0  0  0  0
   -5.3477    0.3850   -0.8476 C   0  0  0  0  0  0  0  0  0  0  0  0
   -5.6251    1.2175    0.3224 C   0  0  0  0  0  0  0  0  0  0  0  0
   -6.7392    1.6961    0.5006 O   0  0  0  0  0  0  0  0  0  0  0  0
   -4.5812    1.4270    1.1946 O   0  0  0  0  0  0  0  0  0  0  0  0
   -3.8648   -0.9492   -2.1884 O   0  0  0  0  0  0  0  0  0  0  0  0
   -4.8965   -1.2338   -3.1255 C   0  0  0  0  0  0  0  0  0  0  0  0
   -0.0693    0.9523    2.7425 O   0  0  0  0  0  0  0  0  0  0  0  0
   -0.4262    1.6173    3.9464 C   0  0  0  0  0  0  0  0  0  0  0  0
    1.6647    1.4771   -1.6437 H   0  0  0  0  0  0  0  0  0  0  0  0
    0.3685    1.7529   -0.5143 H   0  0  0  0  0  0  0  0  0  0  0  0
    1.9765    2.2545   -0.0484 H   0  0  0  0  0  0  0  0  0  0  0  0
    2.4632   -3.3958    1.5820 H   0  0  0  0  0  0  0  0  0  0  0  0
    6.3479    0.0365   -0.9640 H   0  0  0  0  0  0  0  0  0  0  0  0
    5.5751    1.6254   -2.5602 H   0  0  0  0  0  0  0  0  0  0  0  0
    4.7894    3.1406   -2.0918 H   0  0  0  0  0  0  0  0  0  0  0  0
    5.9207    2.3850   -0.9595 H   0  0  0  0  0  0  0  0  0  0  0  0
    0.3193   -3.4198    2.1728 H   0  0  0  0  0  0  0  0  0  0  0  0
   -2.6738    1.8066    2.7759 H   0  0  0  0  0  0  0  0  0  0  0  0
   -1.4491   -0.7200   -2.4005 H   0  0  0  0  0  0  0  0  0  0  0  0
   -0.2383   -1.5570   -1.4722 H   0  0  0  0  0  0  0  0  0  0  0  0
   -1.8612   -2.2055   -1.4678 H   0  0  0  0  0  0  0  0  0  0  0  0
   -6.2058    0.2494   -1.4915 H   0  0  0  0  0  0  0  0  0  0  0  0
   -5.2575   -0.3160   -3.6005 H   0  0  0  0  0  0  0  0  0  0  0  0
   -4.4740   -1.8732   -3.9062 H   0  0  0  0  0  0  0  0  0  0  0  0
   -5.7174   -1.7801   -2.6501 H   0  0  0  0  0  0  0  0  0  0  0  0
    0.4661    1.6659    4.5780 H   0  0  0  0  0  0  0  0  0  0  0  0
   -0.7474    2.6446    3.7465 H   0  0  0  0  0  0  0  0  0  0  0  0
   -1.1927    1.0612    4.4963 H   0  0  0  0  0  0  0  0  0  0  0  0
  1  2  1  0
  2  3  1  0
  3  4  2  0
  4  5  1  0
  5  6  2  0
  6  7  1  0
  7  8  1  0
  8  9  2  0
  9 10  1  0
 10 11  2  0
 10 12  1  0
  8 13  1  0
 13 14  1  0
  4 15  1  0
  3 16  1  0
 16 17  2  0
 17 18  1  0
 18 19  2  0
 19 20  1  0
 20 21  2  0
 21 22  1  0
 20 23  1  0
 23 24  2  0
 24 25  1  0
 25 26  2  0
 25 27  1  0
 23 28  1  0
 28 29  1  0
 17 30  1  0
 30 31  1  0
  7  2  2  0
 12  6  1  0
 21 16  1  0
 27 19  1  0
  1 32  1  0
  1 33  1  0
  1 34  1  0
  5 35  1  0
  9 36  1  0
 14 37  1  0
 14 38  1  0
 14 39  1  0
 15 40  1  0
 18 41  1  0
 22 42  1  0
 22 43  1  0
 22 44  1  0
 24 45  1  0
 29 46  1  0
 29 47  1  0
 29 48  1  0
 31 49  1  0
 31 50  1  0
 31 51  1  0
M  END
>  <Name>  (727) 
Isokotanin B

>  <PubChem ID>  (727) 
10432452

>  <CDB ID>  (727) 
CDB0727

>  <Smiles>  (727) 
CC1=C(C(=CC2=C1C(=CC(=O)O2)OC)O)C3=C(C=C4C(=C3C)C(=CC(=O)O4)OC)OC

>  <Chemical class>  (727) 
Biscoumarins

>  <Natural source>  (727) 
Aspergillus alliaceus

>  <Molecular Formula>  (727) 
C23H20O8

>  <InChI-Key>  (727) 
SFRGEKKETJXWMS-UHFFFAOYSA-N

>  <Total Molweight>  (727) 
424.404

>  <cLogP>  (727) 
3.3579

>  <cLogS>  (727) 
-4.942

>  <H-Acceptors>  (727) 
8

>  <H-Donors>  (727) 
1

>  <Rotatable Bonds>  (727) 
4

>  <Polar Surface Area>  (727) 
100.52

$$$$
CDB0728
     RDKit          3D

 54 57  0  0  0  0  0  0  0  0999 V2000
    1.4047    1.5414   -1.0113 C   0  0  0  0  0  0  0  0  0  0  0  0
    1.7229    0.3137   -0.1840 C   0  0  0  0  0  0  0  0  0  0  0  0
    3.0386    0.0838    0.3079 C   0  0  0  0  0  0  0  0  0  0  0  0
    3.2430   -1.0744    1.0698 C   0  0  0  0  0  0  0  0  0  0  0  0
    2.2360   -1.9963    1.3568 C   0  0  0  0  0  0  0  0  0  0  0  0
    0.9532   -1.7845    0.8717 C   0  0  0  0  0  0  0  0  0  0  0  0
    0.6779   -0.6285    0.0987 C   0  0  0  0  0  0  0  0  0  0  0  0
   -0.7064   -0.4342   -0.4204 C   0  0  0  0  0  0  0  0  0  0  0  0
   -1.0262   -0.9511   -1.7011 C   0  0  0  0  0  0  0  0  0  0  0  0
   -2.3105   -0.7950   -2.2031 C   0  0  0  0  0  0  0  0  0  0  0  0
   -3.2755   -0.1398   -1.4377 C   0  0  0  0  0  0  0  0  0  0  0  0
   -3.0262    0.3888   -0.1640 C   0  0  0  0  0  0  0  0  0  0  0  0
   -1.7084    0.2420    0.3533 C   0  0  0  0  0  0  0  0  0  0  0  0
   -1.3431    0.7861    1.7185 C   0  0  0  0  0  0  0  0  0  0  0  0
   -4.1735    1.0483    0.5144 C   0  0  0  0  0  0  0  0  0  0  0  0
   -5.3605    1.1160   -0.1053 C   0  0  0  0  0  0  0  0  0  0  0  0
   -5.6035    0.5678   -1.4392 C   0  0  0  0  0  0  0  0  0  0  0  0
   -6.7075    0.6613   -1.9631 O   0  0  0  0  0  0  0  0  0  0  0  0
   -4.5396   -0.0476   -2.0588 O   0  0  0  0  0  0  0  0  0  0  0  0
   -3.9221    1.5528    1.7702 O   0  0  0  0  0  0  0  0  0  0  0  0
   -4.9747    2.1872    2.4865 C   0  0  0  0  0  0  0  0  0  0  0  0
   -0.0057   -1.5704   -2.3815 O   0  0  0  0  0  0  0  0  0  0  0  0
   -0.3278   -2.2332   -3.5963 C   0  0  0  0  0  0  0  0  0  0  0  0
   -0.1063   -2.6268    1.1086 O   0  0  0  0  0  0  0  0  0  0  0  0
    0.1656   -3.8682    1.7441 C   0  0  0  0  0  0  0  0  0  0  0  0
    4.5008   -1.4042    1.6190 O   0  0  0  0  0  0  0  0  0  0  0  0
    5.6024   -0.6010    1.4299 C   0  0  0  0  0  0  0  0  0  0  0  0
    6.7016   -0.8678    1.9016 O   0  0  0  0  0  0  0  0  0  0  0  0
    5.4062    0.6064    0.6281 C   0  0  0  0  0  0  0  0  0  0  0  0
    4.2267    0.9519    0.0926 C   0  0  0  0  0  0  0  0  0  0  0  0
    4.0191    2.0798   -0.6686 O   0  0  0  0  0  0  0  0  0  0  0  0
    5.1121    2.9522   -0.9288 C   0  0  0  0  0  0  0  0  0  0  0  0
    1.6201    2.4489   -0.4380 H   0  0  0  0  0  0  0  0  0  0  0  0
    1.9773    1.5267   -1.9442 H   0  0  0  0  0  0  0  0  0  0  0  0
    0.3552    1.6223   -1.3021 H   0  0  0  0  0  0  0  0  0  0  0  0
    2.4891   -2.8602    1.9609 H   0  0  0  0  0  0  0  0  0  0  0  0
   -2.5965   -1.1645   -3.1813 H   0  0  0  0  0  0  0  0  0  0  0  0
   -1.5045    1.8685    1.7488 H   0  0  0  0  0  0  0  0  0  0  0  0
   -0.2956    0.6394    1.9903 H   0  0  0  0  0  0  0  0  0  0  0  0
   -1.9303    0.2843    2.4942 H   0  0  0  0  0  0  0  0  0  0  0  0
   -6.2325    1.5812    0.3335 H   0  0  0  0  0  0  0  0  0  0  0  0
   -4.5759    2.5114    3.4523 H   0  0  0  0  0  0  0  0  0  0  0  0
   -5.7948    1.4878    2.6781 H   0  0  0  0  0  0  0  0  0  0  0  0
   -5.3309    3.0748    1.9540 H   0  0  0  0  0  0  0  0  0  0  0  0
    0.5776   -2.7327   -3.9543 H   0  0  0  0  0  0  0  0  0  0  0  0
   -0.6370   -1.5166   -4.3640 H   0  0  0  0  0  0  0  0  0  0  0  0
   -1.0917   -3.0020   -3.4397 H   0  0  0  0  0  0  0  0  0  0  0  0
   -0.7681   -4.4378    1.7772 H   0  0  0  0  0  0  0  0  0  0  0  0
    0.4982   -3.7160    2.7760 H   0  0  0  0  0  0  0  0  0  0  0  0
    0.8934   -4.4558    1.1747 H   0  0  0  0  0  0  0  0  0  0  0  0
    6.3064    1.1935    0.5084 H   0  0  0  0  0  0  0  0  0  0  0  0
    4.7441    3.7766   -1.5467 H   0  0  0  0  0  0  0  0  0  0  0  0
    5.8995    2.4371   -1.4882 H   0  0  0  0  0  0  0  0  0  0  0  0
    5.5035    3.3769    0.0012 H   0  0  0  0  0  0  0  0  0  0  0  0
  1  2  1  0
  2  3  2  0
  3  4  1  0
  4  5  2  0
  5  6  1  0
  6  7  2  0
  7  8  1  0
  8  9  2  0
  9 10  1  0
 10 11  2  0
 11 12  1  0
 12 13  2  0
 13 14  1  0
 12 15  1  0
 15 16  2  0
 16 17  1  0
 17 18  2  0
 17 19  1  0
 15 20  1  0
 20 21  1  0
  9 22  1  0
 22 23  1  0
  6 24  1  0
 24 25  1  0
  4 26  1  0
 26 27  1  0
 27 28  2  0
 27 29  1  0
 29 30  2  0
 30 31  1  0
 31 32  1  0
  7  2  1  0
 30  3  1  0
 13  8  1  0
 19 11  1  0
  1 33  1  0
  1 34  1  0
  1 35  1  0
  5 36  1  0
 10 37  1  0
 14 38  1  0
 14 39  1  0
 14 40  1  0
 16 41  1  0
 21 42  1  0
 21 43  1  0
 21 44  1  0
 23 45  1  0
 23 46  1  0
 23 47  1  0
 25 48  1  0
 25 49  1  0
 25 50  1  0
 29 51  1  0
 32 52  1  0
 32 53  1  0
 32 54  1  0
M  END
>  <Name>  (728) 
Isokotanin A

>  <PubChem ID>  (728) 
10950208

>  <CDB ID>  (728) 
CDB0728

>  <Smiles>  (728) 
CC1=C2C(=CC(=C1C3=C(C=C4C(=C3C)C(=CC(=O)O4)OC)OC)OC)OC(=O)C=C2OC

>  <Chemical class>  (728) 
Biscoumarins

>  <Natural source>  (728) 
Aspergillus alliaceus

>  <Molecular Formula>  (728) 
C24H22O8

>  <InChI-Key>  (728) 
YZMPQQODLHAXHU-UHFFFAOYSA-N

>  <Total Molweight>  (728) 
438.431

>  <cLogP>  (728) 
3.6336

>  <cLogS>  (728) 
-5.256

>  <H-Acceptors>  (728) 
8

>  <H-Donors>  (728) 
0

>  <Rotatable Bonds>  (728) 
5

>  <Polar Surface Area>  (728) 
89.52

$$$$
CDB0729
     RDKit          3D

 37 40  0  0  0  0  0  0  0  0999 V2000
    0.5776    3.3854    0.4491 C   0  0  0  0  0  0  0  0  0  0  0  0
    0.1488    2.0655    0.7589 O   0  0  0  0  0  0  0  0  0  0  0  0
    0.9690    1.0358    0.3642 C   0  0  0  0  0  0  0  0  0  0  0  0
    0.3897   -0.2563    0.3475 C   0  0  0  0  0  0  0  0  0  0  0  0
    1.1861   -1.3592   -0.0274 C   0  0  0  0  0  0  0  0  0  0  0  0
    2.5261   -1.1913   -0.3750 C   0  0  0  0  0  0  0  0  0  0  0  0
    3.3702   -2.3086   -0.7642 C   0  0  0  0  0  0  0  0  0  0  0  0
    4.6492   -2.0867   -1.0816 C   0  0  0  0  0  0  0  0  0  0  0  0
    5.2488   -0.7411   -1.0523 C   0  0  0  0  0  0  0  0  0  0  0  0
    6.4274   -0.5756   -1.3457 O   0  0  0  0  0  0  0  0  0  0  0  0
    4.4208    0.3088   -0.6797 O   0  0  0  0  0  0  0  0  0  0  0  0
    3.0692    0.0879   -0.3441 C   0  0  0  0  0  0  0  0  0  0  0  0
    2.3143    1.2008    0.0214 C   0  0  0  0  0  0  0  0  0  0  0  0
   -1.0283   -0.4772    0.6970 C   0  0  0  0  0  0  0  0  0  0  0  0
   -1.4034   -1.1306    1.8836 C   0  0  0  0  0  0  0  0  0  0  0  0
   -2.7470   -1.3242    2.2190 C   0  0  0  0  0  0  0  0  0  0  0  0
   -3.7527   -0.8648    1.3660 C   0  0  0  0  0  0  0  0  0  0  0  0
   -3.4172   -0.2171    0.1766 C   0  0  0  0  0  0  0  0  0  0  0  0
   -2.0681   -0.0364   -0.1432 C   0  0  0  0  0  0  0  0  0  0  0  0
   -1.7181    0.6037   -1.3597 O   0  0  0  0  0  0  0  0  0  0  0  0
   -2.6709    1.0981   -2.2350 C   0  0  0  0  0  0  0  0  0  0  0  0
   -2.3776    1.6733   -3.2766 O   0  0  0  0  0  0  0  0  0  0  0  0
   -4.0800    0.8935   -1.8619 C   0  0  0  0  0  0  0  0  0  0  0  0
   -4.4395    0.2746   -0.7338 C   0  0  0  0  0  0  0  0  0  0  0  0
   -0.4302   -1.5898    2.7323 O   0  0  0  0  0  0  0  0  0  0  0  0
    1.4218    3.6790    1.0808 H   0  0  0  0  0  0  0  0  0  0  0  0
   -0.2519    4.0650    0.6670 H   0  0  0  0  0  0  0  0  0  0  0  0
    0.8221    3.4891   -0.6135 H   0  0  0  0  0  0  0  0  0  0  0  0
    0.7412   -2.3523   -0.0389 H   0  0  0  0  0  0  0  0  0  0  0  0
    2.9482   -3.3071   -0.7911 H   0  0  0  0  0  0  0  0  0  0  0  0
    5.3121   -2.8907   -1.3768 H   0  0  0  0  0  0  0  0  0  0  0  0
    2.8001    2.1694    0.0406 H   0  0  0  0  0  0  0  0  0  0  0  0
   -3.0268   -1.8311    3.1381 H   0  0  0  0  0  0  0  0  0  0  0  0
   -4.7934   -1.0195    1.6405 H   0  0  0  0  0  0  0  0  0  0  0  0
   -4.8120    1.2767   -2.5621 H   0  0  0  0  0  0  0  0  0  0  0  0
   -5.4851    0.1360   -0.4816 H   0  0  0  0  0  0  0  0  0  0  0  0
   -0.8405   -1.8829    3.5616 H   0  0  0  0  0  0  0  0  0  0  0  0
  1  2  1  0
  2  3  1  0
  3  4  2  0
  4  5  1  0
  5  6  2  0
  6  7  1  0
  7  8  2  0
  8  9  1  0
  9 10  2  0
  9 11  1  0
 11 12  1  0
 12 13  2  0
  4 14  1  0
 14 15  2  0
 15 16  1  0
 16 17  2  0
 17 18  1  0
 18 19  2  0
 19 20  1  0
 20 21  1  0
 21 22  2  0
 21 23  1  0
 23 24  2  0
 15 25  1  0
 13  3  1  0
 12  6  1  0
 19 14  1  0
 24 18  1  0
  1 26  1  0
  1 27  1  0
  1 28  1  0
  5 29  1  0
  7 30  1  0
  8 31  1  0
 13 32  1  0
 16 33  1  0
 17 34  1  0
 23 35  1  0
 24 36  1  0
 25 37  1  0
M  END
>  <Name>  (729) 
Bhubaneswin

>  <PubChem ID>  (729) 
5379164

>  <CDB ID>  (729) 
CDB0729

>  <Smiles>  (729) 
COC1=C(C=C2C=CC(=O)OC2=C1)C3=C(C=CC4=C3OC(=O)C=C4)O

>  <Chemical class>  (729) 
Biscoumarins

>  <Natural source>  (729) 
Boenninghausenia albiflora

>  <Molecular Formula>  (729) 
C19H12O6

>  <InChI-Key>  (729) 
FPNXOLDQQJUBJG-UHFFFAOYSA-N

>  <Total Molweight>  (729) 
336.298

>  <cLogP>  (729) 
2.5787

>  <cLogS>  (729) 
-4.932

>  <H-Acceptors>  (729) 
6

>  <H-Donors>  (729) 
1

>  <Rotatable Bonds>  (729) 
2

>  <Polar Surface Area>  (729) 
82.06

$$$$
CDB0730
     RDKit          3D

 40 43  0  0  0  0  0  0  0  0999 V2000
   -0.9485    3.8089   -1.3371 C   0  0  0  0  0  0  0  0  0  0  0  0
   -0.4658    2.6176   -0.7308 O   0  0  0  0  0  0  0  0  0  0  0  0
   -1.3824    1.8086   -0.1040 C   0  0  0  0  0  0  0  0  0  0  0  0
   -0.9356    0.5154    0.2478 C   0  0  0  0  0  0  0  0  0  0  0  0
   -1.8432   -0.3374    0.9065 C   0  0  0  0  0  0  0  0  0  0  0  0
   -3.1488    0.0513    1.2087 C   0  0  0  0  0  0  0  0  0  0  0  0
   -3.5691    1.3314    0.8558 C   0  0  0  0  0  0  0  0  0  0  0  0
   -2.6905    2.2062    0.2073 C   0  0  0  0  0  0  0  0  0  0  0  0
   -4.0369   -0.8832    1.8817 C   0  0  0  0  0  0  0  0  0  0  0  0
   -3.5945   -2.1022    2.2027 C   0  0  0  0  0  0  0  0  0  0  0  0
   -2.2229   -2.5467    1.9060 C   0  0  0  0  0  0  0  0  0  0  0  0
   -1.8501   -3.6724    2.2158 O   0  0  0  0  0  0  0  0  0  0  0  0
   -1.3952   -1.6314    1.2766 O   0  0  0  0  0  0  0  0  0  0  0  0
    0.4343    0.0592   -0.0690 C   0  0  0  0  0  0  0  0  0  0  0  0
    0.6879   -0.8578   -1.1176 C   0  0  0  0  0  0  0  0  0  0  0  0
    1.9986   -1.2660   -1.3811 C   0  0  0  0  0  0  0  0  0  0  0  0
    3.0410   -0.7688   -0.6004 C   0  0  0  0  0  0  0  0  0  0  0  0
    2.8199    0.1283    0.4383 C   0  0  0  0  0  0  0  0  0  0  0  0
    1.5141    0.5407    0.7008 C   0  0  0  0  0  0  0  0  0  0  0  0
    3.9528    0.6067    1.2128 C   0  0  0  0  0  0  0  0  0  0  0  0
    5.1825    0.1793    0.9112 C   0  0  0  0  0  0  0  0  0  0  0  0
    5.4431   -0.7673   -0.1876 C   0  0  0  0  0  0  0  0  0  0  0  0
    6.5854   -1.1335   -0.4394 O   0  0  0  0  0  0  0  0  0  0  0  0
    4.3437   -1.2113   -0.9095 O   0  0  0  0  0  0  0  0  0  0  0  0
   -0.4073   -1.2752   -1.8344 O   0  0  0  0  0  0  0  0  0  0  0  0
   -0.2253   -2.3714   -2.7209 C   0  0  0  0  0  0  0  0  0  0  0  0
   -0.1223    4.2563   -1.8982 H   0  0  0  0  0  0  0  0  0  0  0  0
   -1.7564    3.5981   -2.0458 H   0  0  0  0  0  0  0  0  0  0  0  0
   -1.2646    4.5323   -0.5789 H   0  0  0  0  0  0  0  0  0  0  0  0
   -4.5790    1.6667    1.0803 H   0  0  0  0  0  0  0  0  0  0  0  0
   -3.0572    3.1977   -0.0388 H   0  0  0  0  0  0  0  0  0  0  0  0
   -5.0520   -0.5785    2.1112 H   0  0  0  0  0  0  0  0  0  0  0  0
   -4.2263   -2.8272    2.7010 H   0  0  0  0  0  0  0  0  0  0  0  0
    2.2397   -1.9551   -2.1820 H   0  0  0  0  0  0  0  0  0  0  0  0
    1.3167    1.2455    1.5061 H   0  0  0  0  0  0  0  0  0  0  0  0
    3.7826    1.3041    2.0254 H   0  0  0  0  0  0  0  0  0  0  0  0
    6.0536    0.5105    1.4631 H   0  0  0  0  0  0  0  0  0  0  0  0
   -1.2083   -2.6503   -3.1125 H   0  0  0  0  0  0  0  0  0  0  0  0
    0.1844   -3.2430   -2.1996 H   0  0  0  0  0  0  0  0  0  0  0  0
    0.4021   -2.0864   -3.5715 H   0  0  0  0  0  0  0  0  0  0  0  0
  1  2  1  0
  2  3  1  0
  3  4  2  0
  4  5  1  0
  5  6  2  0
  6  7  1  0
  7  8  2  0
  6  9  1  0
  9 10  2  0
 10 11  1  0
 11 12  2  0
 11 13  1  0
  4 14  1  0
 14 15  2  0
 15 16  1  0
 16 17  2  0
 17 18  1  0
 18 19  2  0
 18 20  1  0
 20 21  2  0
 21 22  1  0
 22 23  2  0
 22 24  1  0
 15 25  1  0
 25 26  1  0
  8  3  1  0
 13  5  1  0
 19 14  1  0
 24 17  1  0
  1 27  1  0
  1 28  1  0
  1 29  1  0
  7 30  1  0
  8 31  1  0
  9 32  1  0
 10 33  1  0
 16 34  1  0
 19 35  1  0
 20 36  1  0
 21 37  1  0
 26 38  1  0
 26 39  1  0
 26 40  1  0
M  END
>  <Name>  (730) 
Matsukazelactone

>  <PubChem ID>  (730) 
5319307

>  <CDB ID>  (730) 
CDB0730

>  <Smiles>  (730) 
COC1=C(C2=C(C=C1)C=CC(=O)O2)C3=C(C=C4C(=C3)C=CC(=O)O4)OC

>  <Chemical class>  (730) 
Biscoumarins

>  <Natural source>  (730) 
Boenninghausenia albiflora var. japonica

>  <Molecular Formula>  (730) 
C20H14O6

>  <InChI-Key>  (730) 
NFNSSVSQSNJVCR-UHFFFAOYSA-N

>  <Total Molweight>  (730) 
350.325

>  <cLogP>  (730) 
2.8544

>  <cLogS>  (730) 
-5.246

>  <H-Acceptors>  (730) 
6

>  <H-Donors>  (730) 
0

>  <Rotatable Bonds>  (730) 
3

>  <Polar Surface Area>  (730) 
71.06

$$$$
CDB0731
     RDKit          3D

 48 51  0  0  0  0  0  0  0  0999 V2000
    4.7127    1.3073    1.5036 C   0  0  0  0  0  0  0  0  0  0  0  0
    3.3173    1.1608    0.9540 C   0  0  0  0  0  0  0  0  0  0  0  0
    2.3875    2.1566    1.3165 C   0  0  0  0  0  0  0  0  0  0  0  0
    1.0727    2.1222    0.8617 C   0  0  0  0  0  0  0  0  0  0  0  0
    0.6231    1.0856    0.0407 C   0  0  0  0  0  0  0  0  0  0  0  0
    1.5669    0.0979   -0.3194 C   0  0  0  0  0  0  0  0  0  0  0  0
    2.9095    0.1001    0.1099 C   0  0  0  0  0  0  0  0  0  0  0  0
    3.7758   -1.0096   -0.3598 C   0  0  0  0  0  0  0  0  0  0  0  0
    3.2651   -1.9581   -1.1570 C   0  0  0  0  0  0  0  0  0  0  0  0
    1.8719   -1.9683   -1.6004 C   0  0  0  0  0  0  0  0  0  0  0  0
    1.4532   -2.8620   -2.3271 O   0  0  0  0  0  0  0  0  0  0  0  0
    1.0768   -0.9378   -1.1570 O   0  0  0  0  0  0  0  0  0  0  0  0
    5.0819   -0.9731    0.0752 O   0  0  0  0  0  0  0  0  0  0  0  0
    5.9762   -1.9990   -0.3389 C   0  0  0  0  0  0  0  0  0  0  0  0
   -0.7770    1.0105   -0.4363 C   0  0  0  0  0  0  0  0  0  0  0  0
   -1.7809    0.2662    0.2615 C   0  0  0  0  0  0  0  0  0  0  0  0
   -3.1075    0.1961   -0.2597 C   0  0  0  0  0  0  0  0  0  0  0  0
   -3.3721    0.8957   -1.4472 C   0  0  0  0  0  0  0  0  0  0  0  0
   -2.4098    1.6352   -2.1299 C   0  0  0  0  0  0  0  0  0  0  0  0
   -1.1236    1.6851   -1.6224 C   0  0  0  0  0  0  0  0  0  0  0  0
   -0.1693    2.4164   -2.2777 O   0  0  0  0  0  0  0  0  0  0  0  0
   -4.6482    0.9116   -2.0470 O   0  0  0  0  0  0  0  0  0  0  0  0
   -5.7112    0.2310   -1.4966 C   0  0  0  0  0  0  0  0  0  0  0  0
   -6.8299    0.2420   -1.9964 O   0  0  0  0  0  0  0  0  0  0  0  0
   -5.4469   -0.5189   -0.2689 C   0  0  0  0  0  0  0  0  0  0  0  0
   -4.2478   -0.5549    0.3298 C   0  0  0  0  0  0  0  0  0  0  0  0
   -3.9736   -1.2594    1.4798 O   0  0  0  0  0  0  0  0  0  0  0  0
   -5.0074   -2.0245    2.0882 C   0  0  0  0  0  0  0  0  0  0  0  0
   -1.4105   -0.4469    1.5457 C   0  0  0  0  0  0  0  0  0  0  0  0
    0.2671    3.1500    1.2724 O   0  0  0  0  0  0  0  0  0  0  0  0
    5.4359    1.4268    0.6910 H   0  0  0  0  0  0  0  0  0  0  0  0
    4.8049    2.1954    2.1392 H   0  0  0  0  0  0  0  0  0  0  0  0
    4.9726    0.4474    2.1287 H   0  0  0  0  0  0  0  0  0  0  0  0
    2.6884    2.9816    1.9600 H   0  0  0  0  0  0  0  0  0  0  0  0
    3.8431   -2.7907   -1.5337 H   0  0  0  0  0  0  0  0  0  0  0  0
    5.6427   -2.9776    0.0211 H   0  0  0  0  0  0  0  0  0  0  0  0
    6.0944   -1.9995   -1.4272 H   0  0  0  0  0  0  0  0  0  0  0  0
    6.9540   -1.7918    0.1060 H   0  0  0  0  0  0  0  0  0  0  0  0
   -2.6822    2.1567   -3.0418 H   0  0  0  0  0  0  0  0  0  0  0  0
   -0.5170    2.7067   -3.1374 H   0  0  0  0  0  0  0  0  0  0  0  0
   -6.3141   -1.0433    0.1089 H   0  0  0  0  0  0  0  0  0  0  0  0
   -5.8308   -1.3806    2.4132 H   0  0  0  0  0  0  0  0  0  0  0  0
   -5.3638   -2.8083    1.4122 H   0  0  0  0  0  0  0  0  0  0  0  0
   -4.5887   -2.5093    2.9751 H   0  0  0  0  0  0  0  0  0  0  0  0
   -2.0370   -0.0909    2.3699 H   0  0  0  0  0  0  0  0  0  0  0  0
   -0.3813   -0.2734    1.8674 H   0  0  0  0  0  0  0  0  0  0  0  0
   -1.5130   -1.5294    1.4194 H   0  0  0  0  0  0  0  0  0  0  0  0
   -0.5502    3.1223    0.7462 H   0  0  0  0  0  0  0  0  0  0  0  0
  1  2  1  0
  2  3  1  0
  3  4  2  0
  4  5  1  0
  5  6  2  0
  6  7  1  0
  7  8  1  0
  8  9  2  0
  9 10  1  0
 10 11  2  0
 10 12  1  0
  8 13  1  0
 13 14  1  0
  5 15  1  0
 15 16  1  0
 16 17  2  0
 17 18  1  0
 18 19  2  0
 19 20  1  0
 20 21  1  0
 18 22  1  0
 22 23  1  0
 23 24  2  0
 23 25  1  0
 25 26  2  0
 26 27  1  0
 27 28  1  0
 16 29  1  0
  4 30  1  0
  7  2  2  0
 12  6  1  0
 20 15  2  0
 26 17  1  0
  1 31  1  0
  1 32  1  0
  1 33  1  0
  3 34  1  0
  9 35  1  0
 14 36  1  0
 14 37  1  0
 14 38  1  0
 19 39  1  0
 21 40  1  0
 25 41  1  0
 28 42  1  0
 28 43  1  0
 28 44  1  0
 29 45  1  0
 29 46  1  0
 29 47  1  0
 30 48  1  0
M  END
>  <Name>  (731) 
Desertorin A

>  <PubChem ID>  (731) 
13871793

>  <CDB ID>  (731) 
CDB0731

>  <Smiles>  (731) 
CC1=CC(=C(C2=C1C(=CC(=O)O2)OC)C3=C(C4=C(C=C3O)OC(=O)C=C4OC)C)O

>  <Chemical class>  (731) 
Biscoumarins

>  <Natural source>  (731) 
Emericella desertorum

>  <Molecular Formula>  (731) 
C22H18O8

>  <InChI-Key>  (731) 
PRMZXICFBUXBCX-UHFFFAOYSA-N

>  <Total Molweight>  (731) 
410.377

>  <cLogP>  (731) 
3.0822

>  <cLogS>  (731) 
-4.628

>  <H-Acceptors>  (731) 
8

>  <H-Donors>  (731) 
2

>  <Rotatable Bonds>  (731) 
3

>  <Polar Surface Area>  (731) 
111.52

$$$$
CDB0732
     RDKit          3D

 51 54  0  0  0  0  0  0  0  0999 V2000
    4.6999    0.4484    1.3180 C   0  0  0  0  0  0  0  0  0  0  0  0
    3.2824    0.5372    0.8091 C   0  0  0  0  0  0  0  0  0  0  0  0
    2.4170    1.4216    1.4944 C   0  0  0  0  0  0  0  0  0  0  0  0
    1.0820    1.5878    1.1189 C   0  0  0  0  0  0  0  0  0  0  0  0
    0.5765    0.8614    0.0286 C   0  0  0  0  0  0  0  0  0  0  0  0
    1.4537   -0.0159   -0.6500 C   0  0  0  0  0  0  0  0  0  0  0  0
    2.8005   -0.2046   -0.2939 C   0  0  0  0  0  0  0  0  0  0  0  0
    3.5931   -1.1604   -1.1065 C   0  0  0  0  0  0  0  0  0  0  0  0
    3.0093   -1.8109   -2.1223 C   0  0  0  0  0  0  0  0  0  0  0  0
    1.6052   -1.6302   -2.4889 C   0  0  0  0  0  0  0  0  0  0  0  0
    1.1149   -2.2629   -3.4164 O   0  0  0  0  0  0  0  0  0  0  0  0
    0.8884   -0.7245   -1.7415 O   0  0  0  0  0  0  0  0  0  0  0  0
    4.9121   -1.3064   -0.7389 O   0  0  0  0  0  0  0  0  0  0  0  0
    5.7381   -2.2010   -1.4754 C   0  0  0  0  0  0  0  0  0  0  0  0
   -0.8336    1.0114   -0.4120 C   0  0  0  0  0  0  0  0  0  0  0  0
   -1.8432    0.0651   -0.0375 C   0  0  0  0  0  0  0  0  0  0  0  0
   -3.1684    0.1886   -0.5545 C   0  0  0  0  0  0  0  0  0  0  0  0
   -3.4394    1.2881   -1.3826 C   0  0  0  0  0  0  0  0  0  0  0  0
   -2.4781    2.2306   -1.7309 C   0  0  0  0  0  0  0  0  0  0  0  0
   -1.1898    2.0888   -1.2475 C   0  0  0  0  0  0  0  0  0  0  0  0
   -0.3042    3.0598   -1.6362 O   0  0  0  0  0  0  0  0  0  0  0  0
   -4.7191    1.5341   -1.9206 O   0  0  0  0  0  0  0  0  0  0  0  0
   -5.7818    0.7016   -1.6538 C   0  0  0  0  0  0  0  0  0  0  0  0
   -6.9112    0.9135   -2.0805 O   0  0  0  0  0  0  0  0  0  0  0  0
   -5.5045   -0.4778   -0.8338 C   0  0  0  0  0  0  0  0  0  0  0  0
   -4.2988   -0.7471   -0.3130 C   0  0  0  0  0  0  0  0  0  0  0  0
   -4.0062   -1.8661    0.4340 O   0  0  0  0  0  0  0  0  0  0  0  0
   -5.0281   -2.8272    0.6699 C   0  0  0  0  0  0  0  0  0  0  0  0
   -1.4806   -1.0644    0.9041 C   0  0  0  0  0  0  0  0  0  0  0  0
    0.2054    2.4450    1.7318 O   0  0  0  0  0  0  0  0  0  0  0  0
    0.6226    3.0745    2.9362 C   0  0  0  0  0  0  0  0  0  0  0  0
    5.4059    0.7759    0.5486 H   0  0  0  0  0  0  0  0  0  0  0  0
    4.8597    1.0973    2.1866 H   0  0  0  0  0  0  0  0  0  0  0  0
    4.9283   -0.5709    1.6444 H   0  0  0  0  0  0  0  0  0  0  0  0
    2.8226    1.9840    2.3315 H   0  0  0  0  0  0  0  0  0  0  0  0
    3.5298   -2.5205   -2.7509 H   0  0  0  0  0  0  0  0  0  0  0  0
    5.3653   -3.2276   -1.4023 H   0  0  0  0  0  0  0  0  0  0  0  0
    5.8216   -1.8859   -2.5205 H   0  0  0  0  0  0  0  0  0  0  0  0
    6.7389   -2.1738   -1.0343 H   0  0  0  0  0  0  0  0  0  0  0  0
   -2.7322    3.0676   -2.3742 H   0  0  0  0  0  0  0  0  0  0  0  0
    0.4821    3.0039   -1.0689 H   0  0  0  0  0  0  0  0  0  0  0  0
   -6.3661   -1.1164   -0.6960 H   0  0  0  0  0  0  0  0  0  0  0  0
   -5.3862   -3.2573   -0.2710 H   0  0  0  0  0  0  0  0  0  0  0  0
   -4.5969   -3.6360    1.2673 H   0  0  0  0  0  0  0  0  0  0  0  0
   -5.8526   -2.3892    1.2414 H   0  0  0  0  0  0  0  0  0  0  0  0
   -0.4848   -0.9686    1.3431 H   0  0  0  0  0  0  0  0  0  0  0  0
   -2.1632   -1.0794    1.7600 H   0  0  0  0  0  0  0  0  0  0  0  0
   -1.5025   -2.0214    0.3732 H   0  0  0  0  0  0  0  0  0  0  0  0
    0.9035    2.3358    3.6942 H   0  0  0  0  0  0  0  0  0  0  0  0
    1.4387    3.7792    2.7469 H   0  0  0  0  0  0  0  0  0  0  0  0
   -0.2257    3.6453    3.3259 H   0  0  0  0  0  0  0  0  0  0  0  0
  1  2  1  0
  2  3  1  0
  3  4  2  0
  4  5  1  0
  5  6  2  0
  6  7  1  0
  7  8  1  0
  8  9  2  0
  9 10  1  0
 10 11  2  0
 10 12  1  0
  8 13  1  0
 13 14  1  0
  5 15  1  0
 15 16  1  0
 16 17  2  0
 17 18  1  0
 18 19  2  0
 19 20  1  0
 20 21  1  0
 18 22  1  0
 22 23  1  0
 23 24  2  0
 23 25  1  0
 25 26  2  0
 26 27  1  0
 27 28  1  0
 16 29  1  0
  4 30  1  0
 30 31  1  0
  7  2  2  0
 12  6  1  0
 20 15  2  0
 26 17  1  0
  1 32  1  0
  1 33  1  0
  1 34  1  0
  3 35  1  0
  9 36  1  0
 14 37  1  0
 14 38  1  0
 14 39  1  0
 19 40  1  0
 21 41  1  0
 25 42  1  0
 28 43  1  0
 28 44  1  0
 28 45  1  0
 29 46  1  0
 29 47  1  0
 29 48  1  0
 31 49  1  0
 31 50  1  0
 31 51  1  0
M  END
>  <Name>  (732) 
Desertorin B

>  <PubChem ID>  (732) 
13871794

>  <CDB ID>  (732) 
CDB0732

>  <Smiles>  (732) 
CC1=CC(=C(C2=C1C(=CC(=O)O2)OC)C3=C(C4=C(C=C3O)OC(=O)C=C4OC)C)OC

>  <Chemical class>  (732) 
Biscoumarins

>  <Natural source>  (732) 
Emericella desertorum

>  <Molecular Formula>  (732) 
C23H20O8

>  <InChI-Key>  (732) 
SDIIWOICLXDNES-UHFFFAOYSA-N

>  <Total Molweight>  (732) 
424.404

>  <cLogP>  (732) 
3.3579

>  <cLogS>  (732) 
-4.942

>  <H-Acceptors>  (732) 
8

>  <H-Donors>  (732) 
1

>  <Rotatable Bonds>  (732) 
4

>  <Polar Surface Area>  (732) 
100.52

$$$$
CDB0733
     RDKit          3D

 54 57  0  0  0  0  0  0  0  0999 V2000
   -4.7203   -1.2799    0.9498 C   0  0  0  0  0  0  0  0  0  0  0  0
   -3.3061   -0.8056    0.7271 C   0  0  0  0  0  0  0  0  0  0  0  0
   -2.3532   -1.1699    1.7072 C   0  0  0  0  0  0  0  0  0  0  0  0
   -1.0124   -0.7869    1.6142 C   0  0  0  0  0  0  0  0  0  0  0  0
   -0.5893   -0.0282    0.5111 C   0  0  0  0  0  0  0  0  0  0  0  0
   -1.5506    0.3288   -0.4616 C   0  0  0  0  0  0  0  0  0  0  0  0
   -2.9068   -0.0348   -0.3890 C   0  0  0  0  0  0  0  0  0  0  0  0
   -3.7945    0.4225   -1.4865 C   0  0  0  0  0  0  0  0  0  0  0  0
   -3.2863    1.1514   -2.4898 C   0  0  0  0  0  0  0  0  0  0  0  0
   -1.8757    1.5279   -2.5726 C   0  0  0  0  0  0  0  0  0  0  0  0
   -1.4620    2.1936   -3.5149 O   0  0  0  0  0  0  0  0  0  0  0  0
   -1.0621    1.0915   -1.5541 O   0  0  0  0  0  0  0  0  0  0  0  0
   -5.1163    0.0501   -1.3815 O   0  0  0  0  0  0  0  0  0  0  0  0
   -6.0296    0.4580   -2.3933 C   0  0  0  0  0  0  0  0  0  0  0  0
    0.8228    0.4130    0.3780 C   0  0  0  0  0  0  0  0  0  0  0  0
    1.1776    1.6921    0.8743 C   0  0  0  0  0  0  0  0  0  0  0  0
    2.4906    2.1291    0.7690 C   0  0  0  0  0  0  0  0  0  0  0  0
    3.4469    1.3042    0.1764 C   0  0  0  0  0  0  0  0  0  0  0  0
    3.1611    0.0312   -0.3350 C   0  0  0  0  0  0  0  0  0  0  0  0
    1.8145   -0.4197   -0.2390 C   0  0  0  0  0  0  0  0  0  0  0  0
    1.4079   -1.7743   -0.7796 C   0  0  0  0  0  0  0  0  0  0  0  0
    4.3034   -0.7159   -0.9253 C   0  0  0  0  0  0  0  0  0  0  0  0
    5.5194   -0.1521   -0.9558 C   0  0  0  0  0  0  0  0  0  0  0  0
    5.8006    1.1820   -0.4265 C   0  0  0  0  0  0  0  0  0  0  0  0
    6.9317    1.6512   -0.4805 O   0  0  0  0  0  0  0  0  0  0  0  0
    4.7423    1.8629    0.1305 O   0  0  0  0  0  0  0  0  0  0  0  0
    4.0174   -1.9737   -1.4063 O   0  0  0  0  0  0  0  0  0  0  0  0
    5.0587   -2.7451   -1.9927 C   0  0  0  0  0  0  0  0  0  0  0  0
    0.1648    2.4282    1.4417 O   0  0  0  0  0  0  0  0  0  0  0  0
    0.4709    3.7430    1.8849 C   0  0  0  0  0  0  0  0  0  0  0  0
   -0.0462   -1.1227    2.5291 O   0  0  0  0  0  0  0  0  0  0  0  0
   -0.4707   -1.7030    3.7542 C   0  0  0  0  0  0  0  0  0  0  0  0
   -4.8108   -1.8651    1.8720 H   0  0  0  0  0  0  0  0  0  0  0  0
   -5.0399   -1.9339    0.1325 H   0  0  0  0  0  0  0  0  0  0  0  0
   -5.4000   -0.4283    1.0523 H   0  0  0  0  0  0  0  0  0  0  0  0
   -2.6906   -1.7698    2.5478 H   0  0  0  0  0  0  0  0  0  0  0  0
   -3.8783    1.5167   -3.3175 H   0  0  0  0  0  0  0  0  0  0  0  0
   -7.0176    0.0687   -2.1305 H   0  0  0  0  0  0  0  0  0  0  0  0
   -6.0992    1.5495   -2.4408 H   0  0  0  0  0  0  0  0  0  0  0  0
   -5.7498    0.0387   -3.3651 H   0  0  0  0  0  0  0  0  0  0  0  0
    2.8079    3.0984    1.1361 H   0  0  0  0  0  0  0  0  0  0  0  0
    1.6283   -1.8354   -1.8503 H   0  0  0  0  0  0  0  0  0  0  0  0
    0.3403   -1.9866   -0.6907 H   0  0  0  0  0  0  0  0  0  0  0  0
    1.9232   -2.5697   -0.2315 H   0  0  0  0  0  0  0  0  0  0  0  0
    6.3896   -0.6418   -1.3707 H   0  0  0  0  0  0  0  0  0  0  0  0
    5.8467   -2.9573   -1.2631 H   0  0  0  0  0  0  0  0  0  0  0  0
    4.6302   -3.6995   -2.3125 H   0  0  0  0  0  0  0  0  0  0  0  0
    5.4656   -2.2451   -2.8774 H   0  0  0  0  0  0  0  0  0  0  0  0
    0.8188    4.3694    1.0569 H   0  0  0  0  0  0  0  0  0  0  0  0
   -0.4508    4.1875    2.2726 H   0  0  0  0  0  0  0  0  0  0  0  0
    1.1991    3.7236    2.7022 H   0  0  0  0  0  0  0  0  0  0  0  0
   -1.1925   -1.0615    4.2708 H   0  0  0  0  0  0  0  0  0  0  0  0
    0.4077   -1.8011    4.3993 H   0  0  0  0  0  0  0  0  0  0  0  0
   -0.8765   -2.7066    3.5918 H   0  0  0  0  0  0  0  0  0  0  0  0
  1  2  1  0
  2  3  1  0
  3  4  2  0
  4  5  1  0
  5  6  2  0
  6  7  1  0
  7  8  1  0
  8  9  2  0
  9 10  1  0
 10 11  2  0
 10 12  1  0
  8 13  1  0
 13 14  1  0
  5 15  1  0
 15 16  2  0
 16 17  1  0
 17 18  2  0
 18 19  1  0
 19 20  2  0
 20 21  1  0
 19 22  1  0
 22 23  2  0
 23 24  1  0
 24 25  2  0
 24 26  1  0
 22 27  1  0
 27 28  1  0
 16 29  1  0
 29 30  1  0
  4 31  1  0
 31 32  1  0
  7  2  2  0
 12  6  1  0
 20 15  1  0
 26 18  1  0
  1 33  1  0
  1 34  1  0
  1 35  1  0
  3 36  1  0
  9 37  1  0
 14 38  1  0
 14 39  1  0
 14 40  1  0
 17 41  1  0
 21 42  1  0
 21 43  1  0
 21 44  1  0
 23 45  1  0
 28 46  1  0
 28 47  1  0
 28 48  1  0
 30 49  1  0
 30 50  1  0
 30 51  1  0
 32 52  1  0
 32 53  1  0
 32 54  1  0
M  END
>  <Name>  (733) 
Desertorin C

>  <PubChem ID>  (733) 
11374006

>  <CDB ID>  (733) 
CDB0733

>  <Smiles>  (733) 
CC1=CC(=C(C2=C1C(=CC(=O)O2)OC)C3=C(C=C4C(=C3C)C(=CC(=O)O4)OC)OC)OC

>  <Chemical class>  (733) 
Biscoumarins

>  <Natural source>  (733) 
Emericella desertorum

>  <Molecular Formula>  (733) 
C24H22O8

>  <InChI-Key>  (733) 
RUZBPHMKHKBGQD-UHFFFAOYSA-N

>  <Total Molweight>  (733) 
438.431

>  <cLogP>  (733) 
3.6336

>  <cLogS>  (733) 
-5.256

>  <H-Acceptors>  (733) 
8

>  <H-Donors>  (733) 
0

>  <Rotatable Bonds>  (733) 
5

>  <Polar Surface Area>  (733) 
89.52

$$$$
CDB0734
     RDKit          3D

 54 58  0  0  0  0  0  0  0  0999 V2000
    2.7662    1.6422    2.0533 C   0  0  0  0  0  0  0  0  0  0  0  0
    2.6224    0.4745    1.0885 C   0  0  0  0  0  0  0  0  0  0  0  0
    3.7560   -0.5677    1.1936 C   0  0  0  0  0  0  0  0  0  0  0  0
    4.0752   -1.1694   -0.1806 C   0  0  0  0  0  0  0  0  0  0  0  0
    2.8125   -1.3313   -1.0218 C   0  0  0  0  0  0  0  0  0  0  0  0
    2.1014    0.0378   -1.2005 C   0  0  0  0  0  0  0  0  0  0  0  0
    2.5609    1.0039   -0.2450 O   0  0  0  0  0  0  0  0  0  0  0  0
    0.6894   -0.1985   -1.1333 O   0  0  0  0  0  0  0  0  0  0  0  0
   -0.1781    0.8545   -1.2665 C   0  0  0  0  0  0  0  0  0  0  0  0
   -1.5273    0.5786   -0.9539 C   0  0  0  0  0  0  0  0  0  0  0  0
   -2.4590    1.6285   -1.0634 C   0  0  0  0  0  0  0  0  0  0  0  0
   -2.0933    2.9097   -1.4752 C   0  0  0  0  0  0  0  0  0  0  0  0
   -0.7602    3.1587   -1.7916 C   0  0  0  0  0  0  0  0  0  0  0  0
    0.1909    2.1374   -1.6893 C   0  0  0  0  0  0  0  0  0  0  0  0
   -3.1049    3.9506   -1.5582 C   0  0  0  0  0  0  0  0  0  0  0  0
   -4.3709    3.6706   -1.2357 C   0  0  0  0  0  0  0  0  0  0  0  0
   -4.7954    2.3311   -0.7968 C   0  0  0  0  0  0  0  0  0  0  0  0
   -5.9651    2.1070   -0.5098 O   0  0  0  0  0  0  0  0  0  0  0  0
   -3.8107    1.3562   -0.7367 O   0  0  0  0  0  0  0  0  0  0  0  0
   -1.9526   -0.7620   -0.5060 C   0  0  0  0  0  0  0  0  0  0  0  0
   -2.5559   -1.6887   -1.3720 C   0  0  0  0  0  0  0  0  0  0  0  0
   -2.9664   -2.9454   -0.9221 C   0  0  0  0  0  0  0  0  0  0  0  0
   -2.7773   -3.3127    0.4110 C   0  0  0  0  0  0  0  0  0  0  0  0
   -2.1713   -2.4225    1.2966 C   0  0  0  0  0  0  0  0  0  0  0  0
   -1.7691   -1.1674    0.8296 C   0  0  0  0  0  0  0  0  0  0  0  0
   -1.1416   -0.2584    1.7183 O   0  0  0  0  0  0  0  0  0  0  0  0
   -0.8693   -0.5870    3.0365 C   0  0  0  0  0  0  0  0  0  0  0  0
   -0.2575    0.1639    3.7869 O   0  0  0  0  0  0  0  0  0  0  0  0
   -1.3389   -1.9013    3.5022 C   0  0  0  0  0  0  0  0  0  0  0  0
   -1.9505   -2.7695    2.6916 C   0  0  0  0  0  0  0  0  0  0  0  0
   -2.7756   -1.4355   -2.7001 O   0  0  0  0  0  0  0  0  0  0  0  0
    3.1762   -1.9313   -2.2819 O   0  0  0  0  0  0  0  0  0  0  0  0
    4.7288   -2.4360    0.0020 O   0  0  0  0  0  0  0  0  0  0  0  0
    4.9721   -0.0164    1.7165 O   0  0  0  0  0  0  0  0  0  0  0  0
    3.6482    2.2478    1.8183 H   0  0  0  0  0  0  0  0  0  0  0  0
    2.8336    1.2971    3.0893 H   0  0  0  0  0  0  0  0  0  0  0  0
    1.9021    2.3104    1.9661 H   0  0  0  0  0  0  0  0  0  0  0  0
    1.6671   -0.0221    1.2977 H   0  0  0  0  0  0  0  0  0  0  0  0
    3.4552   -1.3452    1.9062 H   0  0  0  0  0  0  0  0  0  0  0  0
    4.8016   -0.5443   -0.7156 H   0  0  0  0  0  0  0  0  0  0  0  0
    2.1408   -2.0554   -0.5447 H   0  0  0  0  0  0  0  0  0  0  0  0
    2.3359    0.4235   -2.2001 H   0  0  0  0  0  0  0  0  0  0  0  0
   -0.4390    4.1482   -2.1101 H   0  0  0  0  0  0  0  0  0  0  0  0
    1.2202    2.3838   -1.9337 H   0  0  0  0  0  0  0  0  0  0  0  0
   -2.8163    4.9467   -1.8759 H   0  0  0  0  0  0  0  0  0  0  0  0
   -5.1516    4.4203   -1.2801 H   0  0  0  0  0  0  0  0  0  0  0  0
   -3.4349   -3.6388   -1.6164 H   0  0  0  0  0  0  0  0  0  0  0  0
   -3.1055   -4.2953    0.7406 H   0  0  0  0  0  0  0  0  0  0  0  0
   -1.1533   -2.1265    4.5452 H   0  0  0  0  0  0  0  0  0  0  0  0
   -2.2867   -3.7342    3.0559 H   0  0  0  0  0  0  0  0  0  0  0  0
   -2.4228   -0.5570   -2.9159 H   0  0  0  0  0  0  0  0  0  0  0  0
    3.7148   -1.2909   -2.7810 H   0  0  0  0  0  0  0  0  0  0  0  0
    4.6100   -2.9246   -0.8374 H   0  0  0  0  0  0  0  0  0  0  0  0
    5.6196   -0.7476    1.7054 H   0  0  0  0  0  0  0  0  0  0  0  0
  1  2  1  0
  2  3  1  0
  3  4  1  0
  4  5  1  0
  5  6  1  0
  6  7  1  0
  6  8  1  0
  8  9  1  0
  9 10  2  0
 10 11  1  0
 11 12  2  0
 12 13  1  0
 13 14  2  0
 12 15  1  0
 15 16  2  0
 16 17  1  0
 17 18  2  0
 17 19  1  0
 10 20  1  0
 20 21  2  0
 21 22  1  0
 22 23  2  0
 23 24  1  0
 24 25  2  0
 25 26  1  0
 26 27  1  0
 27 28  2  0
 27 29  1  0
 29 30  2  0
 21 31  1  0
  5 32  1  0
  4 33  1  0
  3 34  1  0
  7  2  1  0
 14  9  1  0
 19 11  1  0
 25 20  1  0
 30 24  1  0
  1 35  1  0
  1 36  1  0
  1 37  1  0
  2 38  1  0
  3 39  1  0
  4 40  1  0
  5 41  1  0
  6 42  1  0
 13 43  1  0
 14 44  1  0
 15 45  1  0
 16 46  1  0
 22 47  1  0
 23 48  1  0
 29 49  1  0
 30 50  1  0
 31 51  1  0
 32 52  1  0
 33 53  1  0
 34 54  1  0
M  END
>  <Name>  (734) 
Edgeworoside C

>  <PubChem ID>  (734) 
101835682

>  <CDB ID>  (734) 
CDB0734

>  <Smiles>  (734) 
CC1C(C(C(C(O1)OC2=C(C3=C(C=C2)C=CC(=O)O3)C4=C(C=CC5=C4OC(=O)C=C5)O)O)O)O

>  <Chemical class>  (734) 
Biscoumarins

>  <Natural source>  (734) 
Edgeworthia chrysantha

>  <Molecular Formula>  (734) 
C24H20O10

>  <InChI-Key>  (734) 
DQEAAVKYRCHQOQ-UHFFFAOYSA-N

>  <Total Molweight>  (734) 
468.413

>  <cLogP>  (734) 
1.2404

>  <cLogS>  (734) 
-5.011

>  <H-Acceptors>  (734) 
10

>  <H-Donors>  (734) 
4

>  <Rotatable Bonds>  (734) 
3

>  <Polar Surface Area>  (734) 
151.98

$$$$
CDB0735
     RDKit          3D

 48 51  0  0  0  0  0  0  0  0999 V2000
   -4.8952    1.4362    1.2880 C   0  0  0  0  0  0  0  0  0  0  0  0
   -3.4762    0.9339    1.2242 C   0  0  0  0  0  0  0  0  0  0  0  0
   -2.6307    1.2909    2.2928 C   0  0  0  0  0  0  0  0  0  0  0  0
   -1.3000    0.8832    2.3336 C   0  0  0  0  0  0  0  0  0  0  0  0
   -0.7376    0.1299    1.2997 C   0  0  0  0  0  0  0  0  0  0  0  0
   -1.6112   -0.2453    0.2511 C   0  0  0  0  0  0  0  0  0  0  0  0
   -2.9675    0.1358    0.1729 C   0  0  0  0  0  0  0  0  0  0  0  0
   -3.7388   -0.3236   -1.0095 C   0  0  0  0  0  0  0  0  0  0  0  0
   -3.1399   -1.0760   -1.9428 C   0  0  0  0  0  0  0  0  0  0  0  0
   -1.7414   -1.4921   -1.8597 C   0  0  0  0  0  0  0  0  0  0  0  0
   -1.2407   -2.1920   -2.7325 O   0  0  0  0  0  0  0  0  0  0  0  0
   -1.0389   -1.0680   -0.7566 O   0  0  0  0  0  0  0  0  0  0  0  0
   -5.0555    0.0779   -1.0564 O   0  0  0  0  0  0  0  0  0  0  0  0
   -5.8514   -0.2951   -2.1748 C   0  0  0  0  0  0  0  0  0  0  0  0
    0.7014   -0.2331    1.2675 C   0  0  0  0  0  0  0  0  0  0  0  0
    1.2724   -1.0812    2.2193 C   0  0  0  0  0  0  0  0  0  0  0  0
    2.6138   -1.4525    2.1514 C   0  0  0  0  0  0  0  0  0  0  0  0
    3.4493   -0.9791    1.1192 C   0  0  0  0  0  0  0  0  0  0  0  0
    2.9236   -0.1005    0.1415 C   0  0  0  0  0  0  0  0  0  0  0  0
    1.5625    0.2504    0.2549 C   0  0  0  0  0  0  0  0  0  0  0  0
    0.9741    1.1508   -0.6728 O   0  0  0  0  0  0  0  0  0  0  0  0
    1.6633    1.6790   -1.7389 C   0  0  0  0  0  0  0  0  0  0  0  0
    1.1470    2.4353   -2.5531 O   0  0  0  0  0  0  0  0  0  0  0  0
    3.0700    1.2995   -1.8571 C   0  0  0  0  0  0  0  0  0  0  0  0
    3.6844    0.4778   -0.9949 C   0  0  0  0  0  0  0  0  0  0  0  0
    5.0082    0.1063   -1.0777 O   0  0  0  0  0  0  0  0  0  0  0  0
    5.7973    0.6027   -2.1527 C   0  0  0  0  0  0  0  0  0  0  0  0
    4.8819   -1.4492    1.1376 C   0  0  0  0  0  0  0  0  0  0  0  0
    0.5071   -1.5252    3.2649 O   0  0  0  0  0  0  0  0  0  0  0  0
   -0.5945    1.2575    3.4457 O   0  0  0  0  0  0  0  0  0  0  0  0
   -5.5986    0.5989    1.3301 H   0  0  0  0  0  0  0  0  0  0  0  0
   -5.1140    2.0820    0.4319 H   0  0  0  0  0  0  0  0  0  0  0  0
   -5.0700    2.0386    2.1868 H   0  0  0  0  0  0  0  0  0  0  0  0
   -3.0105    1.8918    3.1174 H   0  0  0  0  0  0  0  0  0  0  0  0
   -3.6454   -1.4383   -2.8272 H   0  0  0  0  0  0  0  0  0  0  0  0
   -5.9494   -1.3835   -2.2395 H   0  0  0  0  0  0  0  0  0  0  0  0
   -6.8512    0.1249   -2.0304 H   0  0  0  0  0  0  0  0  0  0  0  0
   -5.4426    0.1191   -3.1020 H   0  0  0  0  0  0  0  0  0  0  0  0
    3.0285   -2.1099    2.9125 H   0  0  0  0  0  0  0  0  0  0  0  0
    3.5666    1.7489   -2.7060 H   0  0  0  0  0  0  0  0  0  0  0  0
    6.8059    0.1925   -2.0459 H   0  0  0  0  0  0  0  0  0  0  0  0
    5.8715    1.6941   -2.1120 H   0  0  0  0  0  0  0  0  0  0  0  0
    5.3988    0.2707   -3.1168 H   0  0  0  0  0  0  0  0  0  0  0  0
    5.0749   -2.1227    1.9804 H   0  0  0  0  0  0  0  0  0  0  0  0
    5.1139   -2.0128    0.2286 H   0  0  0  0  0  0  0  0  0  0  0  0
    5.5641   -0.6012    1.2522 H   0  0  0  0  0  0  0  0  0  0  0  0
    0.9467   -2.2907    3.6744 H   0  0  0  0  0  0  0  0  0  0  0  0
    0.0739    0.5634    3.5966 H   0  0  0  0  0  0  0  0  0  0  0  0
  1  2  1  0
  2  3  1  0
  3  4  2  0
  4  5  1  0
  5  6  2  0
  6  7  1  0
  7  8  1  0
  8  9  2  0
  9 10  1  0
 10 11  2  0
 10 12  1  0
  8 13  1  0
 13 14  1  0
  5 15  1  0
 15 16  1  0
 16 17  2  0
 17 18  1  0
 18 19  2  0
 19 20  1  0
 20 21  1  0
 21 22  1  0
 22 23  2  0
 22 24  1  0
 24 25  2  0
 25 26  1  0
 26 27  1  0
 18 28  1  0
 16 29  1  0
  4 30  1  0
  7  2  2  0
 12  6  1  0
 20 15  2  0
 25 19  1  0
  1 31  1  0
  1 32  1  0
  1 33  1  0
  3 34  1  0
  9 35  1  0
 14 36  1  0
 14 37  1  0
 14 38  1  0
 17 39  1  0
 24 40  1  0
 27 41  1  0
 27 42  1  0
 27 43  1  0
 28 44  1  0
 28 45  1  0
 28 46  1  0
 29 47  1  0
 30 48  1  0
M  END
>  <Name>  (735) 
Orlandin

>  <PubChem ID>  (735) 
5484238

>  <CDB ID>  (735) 
CDB0735

>  <Smiles>  (735) 
CC1=CC(=C(C2=C1C(=CC(=O)O2)OC)C3=C(C=C(C4=C3OC(=O)C=C4OC)C)O)O

>  <Chemical class>  (735) 
Biscoumarins

>  <Natural source>  (735) 
Aspergillus niger

>  <Molecular Formula>  (735) 
C22H18O8

>  <InChI-Key>  (735) 
SSGXAFNGBRRLQM-UHFFFAOYSA-N

>  <Total Molweight>  (735) 
410.377

>  <cLogP>  (735) 
3.0822

>  <cLogS>  (735) 
-4.628

>  <H-Acceptors>  (735) 
8

>  <H-Donors>  (735) 
2

>  <Rotatable Bonds>  (735) 
3

>  <Polar Surface Area>  (735) 
111.52

$$$$
CDB0736
     RDKit          3D

 54 57  0  0  0  0  0  0  0  0999 V2000
    4.8729    0.9051    1.1804 C   0  0  0  0  0  0  0  0  0  0  0  0
    3.4480    0.7170    0.7235 C   0  0  0  0  0  0  0  0  0  0  0  0
    2.5204    1.7117    1.1128 C   0  0  0  0  0  0  0  0  0  0  0  0
    1.1718    1.6484    0.7518 C   0  0  0  0  0  0  0  0  0  0  0  0
    0.7192    0.5708   -0.0252 C   0  0  0  0  0  0  0  0  0  0  0  0
    1.6537   -0.4187   -0.4034 C   0  0  0  0  0  0  0  0  0  0  0  0
    3.0150   -0.3816   -0.0537 C   0  0  0  0  0  0  0  0  0  0  0  0
    3.8718   -1.4955   -0.5302 C   0  0  0  0  0  0  0  0  0  0  0  0
    3.3328   -2.4792   -1.2634 C   0  0  0  0  0  0  0  0  0  0  0  0
    1.9177   -2.5228   -1.6292 C   0  0  0  0  0  0  0  0  0  0  0  0
    1.4760   -3.4441   -2.3066 O   0  0  0  0  0  0  0  0  0  0  0  0
    1.1323   -1.4909   -1.1735 O   0  0  0  0  0  0  0  0  0  0  0  0
    5.1991   -1.4264   -0.1687 O   0  0  0  0  0  0  0  0  0  0  0  0
    6.0799   -2.4654   -0.5789 C   0  0  0  0  0  0  0  0  0  0  0  0
   -0.6996    0.4636   -0.4322 C   0  0  0  0  0  0  0  0  0  0  0  0
   -1.1237    0.8836   -1.7025 C   0  0  0  0  0  0  0  0  0  0  0  0
   -2.4734    0.7660   -2.0457 C   0  0  0  0  0  0  0  0  0  0  0  0
   -3.4301    0.2296   -1.1521 C   0  0  0  0  0  0  0  0  0  0  0  0
   -3.0261   -0.2063    0.1306 C   0  0  0  0  0  0  0  0  0  0  0  0
   -1.6631   -0.0749    0.4493 C   0  0  0  0  0  0  0  0  0  0  0  0
   -1.1701   -0.4969    1.7116 O   0  0  0  0  0  0  0  0  0  0  0  0
   -1.9851   -1.0288    2.6823 C   0  0  0  0  0  0  0  0  0  0  0  0
   -1.5676   -1.3819    3.7794 O   0  0  0  0  0  0  0  0  0  0  0  0
   -3.4019   -1.1625    2.3462 C   0  0  0  0  0  0  0  0  0  0  0  0
   -3.9152   -0.7890    1.1659 C   0  0  0  0  0  0  0  0  0  0  0  0
   -5.2433   -0.9027    0.8192 O   0  0  0  0  0  0  0  0  0  0  0  0
   -6.1545   -1.4639    1.7565 C   0  0  0  0  0  0  0  0  0  0  0  0
   -4.8527    0.1580   -1.6474 C   0  0  0  0  0  0  0  0  0  0  0  0
   -0.1543    1.3962   -2.5282 O   0  0  0  0  0  0  0  0  0  0  0  0
   -0.5245    1.7233   -3.8600 C   0  0  0  0  0  0  0  0  0  0  0  0
    0.2298    2.5842    1.1004 O   0  0  0  0  0  0  0  0  0  0  0  0
    0.6260    3.6256    1.9813 C   0  0  0  0  0  0  0  0  0  0  0  0
    4.9919    1.8216    1.7693 H   0  0  0  0  0  0  0  0  0  0  0  0
    5.5436    0.9974    0.3205 H   0  0  0  0  0  0  0  0  0  0  0  0
    5.1825    0.0770    1.8254 H   0  0  0  0  0  0  0  0  0  0  0  0
    2.8866    2.5437    1.7076 H   0  0  0  0  0  0  0  0  0  0  0  0
    3.9012   -3.3174   -1.6417 H   0  0  0  0  0  0  0  0  0  0  0  0
    6.1447   -2.5152   -1.6706 H   0  0  0  0  0  0  0  0  0  0  0  0
    5.7723   -3.4282   -0.1585 H   0  0  0  0  0  0  0  0  0  0  0  0
    7.0767   -2.2324   -0.1928 H   0  0  0  0  0  0  0  0  0  0  0  0
   -2.8176    1.0937   -3.0225 H   0  0  0  0  0  0  0  0  0  0  0  0
   -3.9944   -1.5920    3.1421 H   0  0  0  0  0  0  0  0  0  0  0  0
   -7.1471   -1.4719    1.2964 H   0  0  0  0  0  0  0  0  0  0  0  0
   -5.8848   -2.4980    1.9938 H   0  0  0  0  0  0  0  0  0  0  0  0
   -6.2086   -0.8533    2.6635 H   0  0  0  0  0  0  0  0  0  0  0  0
   -5.5101    0.7661   -1.0183 H   0  0  0  0  0  0  0  0  0  0  0  0
   -5.1977   -0.8802   -1.6776 H   0  0  0  0  0  0  0  0  0  0  0  0
   -4.9468    0.5485   -2.6671 H   0  0  0  0  0  0  0  0  0  0  0  0
   -0.9117    0.8475   -4.3911 H   0  0  0  0  0  0  0  0  0  0  0  0
    0.3759    2.0577   -4.3842 H   0  0  0  0  0  0  0  0  0  0  0  0
   -1.2436    2.5486   -3.8766 H   0  0  0  0  0  0  0  0  0  0  0  0
    0.9890    3.2241    2.9332 H   0  0  0  0  0  0  0  0  0  0  0  0
   -0.2565    4.2367    2.1942 H   0  0  0  0  0  0  0  0  0  0  0  0
    1.3731    4.2742    1.5125 H   0  0  0  0  0  0  0  0  0  0  0  0
  1  2  1  0
  2  3  1  0
  3  4  2  0
  4  5  1  0
  5  6  2  0
  6  7  1  0
  7  8  1  0
  8  9  2  0
  9 10  1  0
 10 11  2  0
 10 12  1  0
  8 13  1  0
 13 14  1  0
  5 15  1  0
 15 16  1  0
 16 17  2  0
 17 18  1  0
 18 19  2  0
 19 20  1  0
 20 21  1  0
 21 22  1  0
 22 23  2  0
 22 24  1  0
 24 25  2  0
 25 26  1  0
 26 27  1  0
 18 28  1  0
 16 29  1  0
 29 30  1  0
  4 31  1  0
 31 32  1  0
  7  2  2  0
 12  6  1  0
 20 15  2  0
 25 19  1  0
  1 33  1  0
  1 34  1  0
  1 35  1  0
  3 36  1  0
  9 37  1  0
 14 38  1  0
 14 39  1  0
 14 40  1  0
 17 41  1  0
 24 42  1  0
 27 43  1  0
 27 44  1  0
 27 45  1  0
 28 46  1  0
 28 47  1  0
 28 48  1  0
 30 49  1  0
 30 50  1  0
 30 51  1  0
 32 52  1  0
 32 53  1  0
 32 54  1  0
M  END
>  <Name>  (736) 
Kotanin

>  <PubChem ID>  (736) 
34059

>  <CDB ID>  (736) 
CDB0736

>  <Smiles>  (736) 
CC1=CC(=C(C2=C1C(=CC(=O)O2)OC)C3=C(C=C(C4=C3OC(=O)C=C4OC)C)OC)OC

>  <Chemical class>  (736) 
Biscoumarins

>  <Natural source>  (736) 
Aspergillus glaucus

>  <Molecular Formula>  (736) 
C24H22O8

>  <InChI-Key>  (736) 
CSJOUDOXDHMIAH-UHFFFAOYSA-N

>  <Total Molweight>  (736) 
438.431

>  <cLogP>  (736) 
3.6336

>  <cLogS>  (736) 
-5.256

>  <H-Acceptors>  (736) 
8

>  <H-Donors>  (736) 
0

>  <Rotatable Bonds>  (736) 
5

>  <Polar Surface Area>  (736) 
89.52

$$$$
CDB0737
     RDKit          3D

 60 64  0  0  0  0  0  0  0  0999 V2000
    3.6201   -4.9917   -0.7001 C   0  0  0  0  0  0  0  0  0  0  0  0
    2.5543   -4.3056   -0.0575 O   0  0  0  0  0  0  0  0  0  0  0  0
    2.4528   -2.9372   -0.2263 C   0  0  0  0  0  0  0  0  0  0  0  0
    3.2689   -2.1792   -0.9783 C   0  0  0  0  0  0  0  0  0  0  0  0
    3.0542   -0.7444   -1.1162 C   0  0  0  0  0  0  0  0  0  0  0  0
    3.8166    0.0223   -2.0018 C   0  0  0  0  0  0  0  0  0  0  0  0
    3.5716    1.3873   -2.0952 C   0  0  0  0  0  0  0  0  0  0  0  0
    2.5890    1.9960   -1.3083 C   0  0  0  0  0  0  0  0  0  0  0  0
    1.8192    1.2591   -0.3986 C   0  0  0  0  0  0  0  0  0  0  0  0
    2.0732   -0.1230   -0.3370 C   0  0  0  0  0  0  0  0  0  0  0  0
    1.2840   -0.9063    0.5320 O   0  0  0  0  0  0  0  0  0  0  0  0
    1.2999   -2.2935    0.4748 C   0  0  0  0  0  0  0  0  0  0  0  0
    0.3739   -2.9453    0.9540 O   0  0  0  0  0  0  0  0  0  0  0  0
    0.8301    1.9175    0.4751 C   0  0  0  0  0  0  0  0  0  0  0  0
   -0.5577    1.7882    0.2815 C   0  0  0  0  0  0  0  0  0  0  0  0
   -1.4617    2.4869    1.0957 C   0  0  0  0  0  0  0  0  0  0  0  0
   -1.0039    3.2845    2.1466 C   0  0  0  0  0  0  0  0  0  0  0  0
    0.3630    3.3970    2.3883 C   0  0  0  0  0  0  0  0  0  0  0  0
    1.2555    2.7166    1.5561 C   0  0  0  0  0  0  0  0  0  0  0  0
    2.6501    2.8110    1.8040 O   0  0  0  0  0  0  0  0  0  0  0  0
    3.1681    3.5812    2.8326 C   0  0  0  0  0  0  0  0  0  0  0  0
    4.3711    3.6665    3.0512 O   0  0  0  0  0  0  0  0  0  0  0  0
    2.1967    4.2962    3.6760 C   0  0  0  0  0  0  0  0  0  0  0  0
    0.8783    4.2128    3.4765 C   0  0  0  0  0  0  0  0  0  0  0  0
   -1.0156    1.0066   -0.7547 O   0  0  0  0  0  0  0  0  0  0  0  0
   -1.9478   -0.0011   -0.3140 C   0  0  0  0  0  0  0  0  0  0  0  0
   -1.7249   -1.2434   -1.2042 C   0  0  0  0  0  0  0  0  0  0  0  0
   -2.6759   -2.3577   -0.7680 C   0  0  0  0  0  0  0  0  0  0  0  0
   -4.1280   -1.8495   -0.7784 C   0  0  0  0  0  0  0  0  0  0  0  0
   -4.2462   -0.5204   -0.0093 C   0  0  0  0  0  0  0  0  0  0  0  0
   -3.2970    0.4586   -0.4821 O   0  0  0  0  0  0  0  0  0  0  0  0
   -5.6455    0.0840   -0.1743 C   0  0  0  0  0  0  0  0  0  0  0  0
   -5.7030    1.3452    0.4992 O   0  0  0  0  0  0  0  0  0  0  0  0
   -4.9765   -2.8404   -0.1874 O   0  0  0  0  0  0  0  0  0  0  0  0
   -2.3874   -2.8126    0.5658 O   0  0  0  0  0  0  0  0  0  0  0  0
   -1.9465   -0.9360   -2.5913 O   0  0  0  0  0  0  0  0  0  0  0  0
    2.3963    3.3477   -1.4474 O   0  0  0  0  0  0  0  0  0  0  0  0
    4.2779    2.1890   -2.9510 O   0  0  0  0  0  0  0  0  0  0  0  0
    4.5901   -4.6305   -0.3433 H   0  0  0  0  0  0  0  0  0  0  0  0
    3.5440   -4.9011   -1.7885 H   0  0  0  0  0  0  0  0  0  0  0  0
    3.5409   -6.0524   -0.4443 H   0  0  0  0  0  0  0  0  0  0  0  0
    4.1085   -2.5992   -1.5188 H   0  0  0  0  0  0  0  0  0  0  0  0
    4.5839   -0.4431   -2.6124 H   0  0  0  0  0  0  0  0  0  0  0  0
   -2.5309    2.4290    0.9114 H   0  0  0  0  0  0  0  0  0  0  0  0
   -1.7266    3.8130    2.7637 H   0  0  0  0  0  0  0  0  0  0  0  0
    2.6170    4.8954    4.4743 H   0  0  0  0  0  0  0  0  0  0  0  0
    0.1815    4.7483    4.1120 H   0  0  0  0  0  0  0  0  0  0  0  0
   -1.7672   -0.2619    0.7392 H   0  0  0  0  0  0  0  0  0  0  0  0
   -0.6878   -1.5703   -1.1301 H   0  0  0  0  0  0  0  0  0  0  0  0
   -2.5963   -3.2278   -1.4295 H   0  0  0  0  0  0  0  0  0  0  0  0
   -4.4483   -1.7040   -1.8168 H   0  0  0  0  0  0  0  0  0  0  0  0
   -4.0729   -0.6693    1.0648 H   0  0  0  0  0  0  0  0  0  0  0  0
   -5.8738    0.2709   -1.2288 H   0  0  0  0  0  0  0  0  0  0  0  0
   -6.4190   -0.5651    0.2459 H   0  0  0  0  0  0  0  0  0  0  0  0
   -4.9383    1.8465    0.1577 H   0  0  0  0  0  0  0  0  0  0  0  0
   -4.4461   -3.2333    0.5379 H   0  0  0  0  0  0  0  0  0  0  0  0
   -1.4451   -3.0945    0.6083 H   0  0  0  0  0  0  0  0  0  0  0  0
   -1.6635   -0.0073   -2.7114 H   0  0  0  0  0  0  0  0  0  0  0  0
    3.0552    3.6312   -2.1119 H   0  0  0  0  0  0  0  0  0  0  0  0
    4.9475    1.6506   -3.4071 H   0  0  0  0  0  0  0  0  0  0  0  0
  1  2  1  0
  2  3  1  0
  3  4  2  0
  4  5  1  0
  5  6  1  0
  6  7  2  0
  7  8  1  0
  8  9  2  0
  9 10  1  0
 10 11  1  0
 11 12  1  0
 12 13  2  0
  9 14  1  0
 14 15  2  0
 15 16  1  0
 16 17  2  0
 17 18  1  0
 18 19  2  0
 19 20  1  0
 20 21  1  0
 21 22  2  0
 21 23  1  0
 23 24  2  0
 15 25  1  0
 25 26  1  0
 26 27  1  0
 27 28  1  0
 28 29  1  0
 29 30  1  0
 30 31  1  0
 30 32  1  0
 32 33  1  0
 29 34  1  0
 28 35  1  0
 27 36  1  0
  8 37  1  0
  7 38  1  0
 12  3  1  0
 10  5  2  0
 19 14  1  0
 24 18  1  0
 31 26  1  0
  1 39  1  0
  1 40  1  0
  1 41  1  0
  4 42  1  0
  6 43  1  0
 16 44  1  0
 17 45  1  0
 23 46  1  0
 24 47  1  0
 26 48  1  0
 27 49  1  0
 28 50  1  0
 29 51  1  0
 30 52  1  0
 32 53  1  0
 32 54  1  0
 33 55  1  0
 34 56  1  0
 35 57  1  0
 36 58  1  0
 37 59  1  0
 38 60  1  0
M  END
>  <Name>  (737) 
Gulsamanin

>  <PubChem ID>  (737) 
100968115

>  <CDB ID>  (737) 
CDB0737

>  <Smiles>  (737) 
COC1=CC2=CC(=C(C(=C2OC1=O)C3=C(C=CC4=C3OC(=O)C=C4)OC5C(C(C(C(O5)CO)O)O)O)O)O

>  <Chemical class>  (737) 
Biscoumarins

>  <Natural source>  (737) 
Daphne oleoides

>  <Molecular Formula>  (737) 
C25H22O13

>  <InChI-Key>  (737) 
NOSNPRHQZMFYES-UHFFFAOYSA-N

>  <Total Molweight>  (737) 
530.437

>  <cLogP>  (737) 
-0.1039

>  <cLogS>  (737) 
-4.267

>  <H-Acceptors>  (737) 
13

>  <H-Donors>  (737) 
6

>  <Rotatable Bonds>  (737) 
5

>  <Polar Surface Area>  (737) 
201.67

$$$$
CDB0738
     RDKit          3D

 34 37  0  0  0  0  0  0  0  0999 V2000
   -2.7522   -0.8034    1.0794 C   0  0  0  0  0  0  0  0  0  0  0  0
   -1.5324   -0.7769    0.3934 C   0  0  0  0  0  0  0  0  0  0  0  0
   -1.4429   -0.1468   -0.8534 C   0  0  0  0  0  0  0  0  0  0  0  0
   -2.5739    0.4223   -1.4348 C   0  0  0  0  0  0  0  0  0  0  0  0
   -3.7797    0.3854   -0.7399 C   0  0  0  0  0  0  0  0  0  0  0  0
   -3.8855   -0.2157    0.5134 C   0  0  0  0  0  0  0  0  0  0  0  0
   -5.1727   -0.2143    1.1885 C   0  0  0  0  0  0  0  0  0  0  0  0
   -6.2255    0.3560    0.5947 C   0  0  0  0  0  0  0  0  0  0  0  0
   -6.1395    0.9887   -0.7335 C   0  0  0  0  0  0  0  0  0  0  0  0
   -7.1308    1.4912   -1.2504 O   0  0  0  0  0  0  0  0  0  0  0  0
   -4.8992    0.9787   -1.3563 O   0  0  0  0  0  0  0  0  0  0  0  0
   -0.2838   -0.1117   -1.5934 O   0  0  0  0  0  0  0  0  0  0  0  0
    0.9155    0.1384   -0.9288 C   0  0  0  0  0  0  0  0  0  0  0  0
    1.9509   -0.6857   -1.1363 C   0  0  0  0  0  0  0  0  0  0  0  0
    3.2238   -0.4591   -0.4768 C   0  0  0  0  0  0  0  0  0  0  0  0
    3.3542    0.6345    0.3736 C   0  0  0  0  0  0  0  0  0  0  0  0
    4.5433    0.9009    1.0458 C   0  0  0  0  0  0  0  0  0  0  0  0
    5.6222    0.0474    0.8544 C   0  0  0  0  0  0  0  0  0  0  0  0
    5.5219   -1.0550    0.0073 C   0  0  0  0  0  0  0  0  0  0  0  0
    4.3181   -1.3088   -0.6598 C   0  0  0  0  0  0  0  0  0  0  0  0
    6.7776    0.3262    1.5215 O   0  0  0  0  0  0  0  0  0  0  0  0
    2.2801    1.5195    0.5769 O   0  0  0  0  0  0  0  0  0  0  0  0
    1.0586    1.3580   -0.0741 C   0  0  0  0  0  0  0  0  0  0  0  0
    0.1625    2.1847    0.0576 O   0  0  0  0  0  0  0  0  0  0  0  0
   -2.8037   -1.2867    2.0520 H   0  0  0  0  0  0  0  0  0  0  0  0
   -0.6662   -1.2556    0.8413 H   0  0  0  0  0  0  0  0  0  0  0  0
   -2.5146    0.8994   -2.4080 H   0  0  0  0  0  0  0  0  0  0  0  0
   -5.2598   -0.6731    2.1670 H   0  0  0  0  0  0  0  0  0  0  0  0
   -7.2014    0.3808    1.0639 H   0  0  0  0  0  0  0  0  0  0  0  0
    1.8470   -1.5459   -1.7889 H   0  0  0  0  0  0  0  0  0  0  0  0
    4.6291    1.7593    1.7043 H   0  0  0  0  0  0  0  0  0  0  0  0
    6.3638   -1.7240   -0.1449 H   0  0  0  0  0  0  0  0  0  0  0  0
    4.2480   -2.1717   -1.3179 H   0  0  0  0  0  0  0  0  0  0  0  0
    7.4475   -0.3370    1.2871 H   0  0  0  0  0  0  0  0  0  0  0  0
  1  2  2  0
  2  3  1  0
  3  4  2  0
  4  5  1  0
  5  6  2  0
  6  7  1  0
  7  8  2  0
  8  9  1  0
  9 10  2  0
  9 11  1  0
  3 12  1  0
 12 13  1  0
 13 14  2  0
 14 15  1  0
 15 16  2  0
 16 17  1  0
 17 18  2  0
 18 19  1  0
 19 20  2  0
 18 21  1  0
 16 22  1  0
 22 23  1  0
 23 24  2  0
  6  1  1  0
 11  5  1  0
 23 13  1  0
 20 15  1  0
  1 25  1  0
  2 26  1  0
  4 27  1  0
  7 28  1  0
  8 29  1  0
 14 30  1  0
 17 31  1  0
 19 32  1  0
 20 33  1  0
 21 34  1  0
M  END
>  <Name>  (738) 
Edgeworin

>  <PubChem ID>  (738) 
10925304

>  <CDB ID>  (738) 
CDB0738

>  <Smiles>  (738) 
C1=CC(=CC2=C1C=CC(=O)O2)OC3=CC4=C(C=C(C=C4)O)OC3=O

>  <Chemical class>  (738) 
Biscoumarins

>  <Natural source>  (738) 
Edgeworthia chrysantha

>  <Molecular Formula>  (738) 
C18H10O6

>  <InChI-Key>  (738) 
WNLKKLCKMRDNHF-UHFFFAOYSA-N

>  <Total Molweight>  (738) 
322.271

>  <cLogP>  (738) 
2.4351

>  <cLogS>  (738) 
-4.216

>  <H-Acceptors>  (738) 
6

>  <H-Donors>  (738) 
1

>  <Rotatable Bonds>  (738) 
2

>  <Polar Surface Area>  (738) 
82.06

$$$$
CDB0739
     RDKit          3D

 35 38  0  0  0  0  0  0  0  0999 V2000
    3.9143   -1.4391   -1.2359 C   0  0  0  0  0  0  0  0  0  0  0  0
    2.6148   -1.5666   -1.7376 C   0  0  0  0  0  0  0  0  0  0  0  0
    1.6141   -0.6799   -1.3317 C   0  0  0  0  0  0  0  0  0  0  0  0
    1.9092    0.3618   -0.4528 C   0  0  0  0  0  0  0  0  0  0  0  0
    3.2093    0.4759    0.0345 C   0  0  0  0  0  0  0  0  0  0  0  0
    4.2171   -0.4123   -0.3399 C   0  0  0  0  0  0  0  0  0  0  0  0
    5.5499   -0.2382    0.2131 C   0  0  0  0  0  0  0  0  0  0  0  0
    5.7847    0.7695    1.0590 C   0  0  0  0  0  0  0  0  0  0  0  0
    4.7390    1.7275    1.4592 C   0  0  0  0  0  0  0  0  0  0  0  0
    4.9944    2.6470    2.2282 O   0  0  0  0  0  0  0  0  0  0  0  0
    3.4725    1.5374    0.9234 O   0  0  0  0  0  0  0  0  0  0  0  0
    0.3666   -0.8477   -1.8865 O   0  0  0  0  0  0  0  0  0  0  0  0
   -0.7302   -0.7907   -1.0279 C   0  0  0  0  0  0  0  0  0  0  0  0
   -1.7325    0.0514   -1.3115 C   0  0  0  0  0  0  0  0  0  0  0  0
   -2.8987    0.1360   -0.4496 C   0  0  0  0  0  0  0  0  0  0  0  0
   -3.9515    1.0195   -0.7126 C   0  0  0  0  0  0  0  0  0  0  0  0
   -5.0358    1.0580    0.1610 C   0  0  0  0  0  0  0  0  0  0  0  0
   -5.0750    0.2297    1.2834 C   0  0  0  0  0  0  0  0  0  0  0  0
   -4.0397   -0.6497    1.5558 C   0  0  0  0  0  0  0  0  0  0  0  0
   -2.9593   -0.6835    0.6784 C   0  0  0  0  0  0  0  0  0  0  0  0
   -1.9210   -1.5890    0.9655 O   0  0  0  0  0  0  0  0  0  0  0  0
   -0.8092   -1.7246    0.1374 C   0  0  0  0  0  0  0  0  0  0  0  0
    0.0435   -2.5773    0.3605 O   0  0  0  0  0  0  0  0  0  0  0  0
   -6.1453    0.2802    2.1293 O   0  0  0  0  0  0  0  0  0  0  0  0
   -6.0957    1.8990   -0.0396 O   0  0  0  0  0  0  0  0  0  0  0  0
    4.6756   -2.1491   -1.5495 H   0  0  0  0  0  0  0  0  0  0  0  0
    2.3785   -2.3703   -2.4306 H   0  0  0  0  0  0  0  0  0  0  0  0
    1.1563    1.0820   -0.1517 H   0  0  0  0  0  0  0  0  0  0  0  0
    6.3350   -0.9319   -0.0668 H   0  0  0  0  0  0  0  0  0  0  0  0
    6.7630    0.9329    1.4944 H   0  0  0  0  0  0  0  0  0  0  0  0
   -1.6768    0.6970   -2.1814 H   0  0  0  0  0  0  0  0  0  0  0  0
   -3.9199    1.6650   -1.5846 H   0  0  0  0  0  0  0  0  0  0  0  0
   -4.0749   -1.2930    2.4285 H   0  0  0  0  0  0  0  0  0  0  0  0
   -6.7367    0.9582    1.7457 H   0  0  0  0  0  0  0  0  0  0  0  0
   -5.9355    2.4150   -0.8485 H   0  0  0  0  0  0  0  0  0  0  0  0
  1  2  2  0
  2  3  1  0
  3  4  2  0
  4  5  1  0
  5  6  2  0
  6  7  1  0
  7  8  2  0
  8  9  1  0
  9 10  2  0
  9 11  1  0
  3 12  1  0
 12 13  1  0
 13 14  2  0
 14 15  1  0
 15 16  1  0
 16 17  2  0
 17 18  1  0
 18 19  2  0
 19 20  1  0
 20 21  1  0
 21 22  1  0
 22 23  2  0
 18 24  1  0
 17 25  1  0
  6  1  1  0
 11  5  1  0
 22 13  1  0
 20 15  2  0
  1 26  1  0
  2 27  1  0
  4 28  1  0
  7 29  1  0
  8 30  1  0
 14 31  1  0
 16 32  1  0
 19 33  1  0
 24 34  1  0
 25 35  1  0
M  END
>  <Name>  (739) 
Edgeworthin

>  <PubChem ID>  (739) 
5491526

>  <CDB ID>  (739) 
CDB0739

>  <Smiles>  (739) 
C1=CC(=CC2=C1C=CC(=O)O2)OC3=CC4=CC(=C(C=C4OC3=O)O)O

>  <Chemical class>  (739) 
Biscoumarins

>  <Natural source>  (739) 
Edgeworthia gardneri

>  <Molecular Formula>  (739) 
C18H10O7

>  <InChI-Key>  (739) 
IBZKIELXVOINHR-UHFFFAOYSA-N

>  <Total Molweight>  (739) 
338.27

>  <cLogP>  (739) 
2.0894

>  <cLogS>  (739) 
-3.92

>  <H-Acceptors>  (739) 
7

>  <H-Donors>  (739) 
2

>  <Rotatable Bonds>  (739) 
2

>  <Polar Surface Area>  (739) 
102.29

$$$$
CDB0740
     RDKit          3D

 38 41  0  0  0  0  0  0  0  0999 V2000
   -6.3826   -0.1137   -1.3296 C   0  0  0  0  0  0  0  0  0  0  0  0
   -6.0807    0.8200   -0.2987 O   0  0  0  0  0  0  0  0  0  0  0  0
   -4.8103    0.7834    0.2162 C   0  0  0  0  0  0  0  0  0  0  0  0
   -4.5659    1.7052    1.2447 C   0  0  0  0  0  0  0  0  0  0  0  0
   -3.3299    1.7915    1.8695 C   0  0  0  0  0  0  0  0  0  0  0  0
   -2.3207    0.9341    1.4491 C   0  0  0  0  0  0  0  0  0  0  0  0
   -2.5247    0.0083    0.4290 C   0  0  0  0  0  0  0  0  0  0  0  0
   -3.7792   -0.0678   -0.1915 C   0  0  0  0  0  0  0  0  0  0  0  0
   -1.4183   -0.8455    0.0320 C   0  0  0  0  0  0  0  0  0  0  0  0
   -0.2236   -0.7453    0.6294 C   0  0  0  0  0  0  0  0  0  0  0  0
   -0.0094    0.1928    1.7748 C   0  0  0  0  0  0  0  0  0  0  0  0
    1.0393    0.2382    2.4084 O   0  0  0  0  0  0  0  0  0  0  0  0
   -1.0769    1.0274    2.0990 O   0  0  0  0  0  0  0  0  0  0  0  0
    0.8025   -1.5954    0.2210 O   0  0  0  0  0  0  0  0  0  0  0  0
    2.0238   -1.0421   -0.0866 C   0  0  0  0  0  0  0  0  0  0  0  0
    3.1520   -1.7562    0.3113 C   0  0  0  0  0  0  0  0  0  0  0  0
    4.4123   -1.2548   -0.0029 C   0  0  0  0  0  0  0  0  0  0  0  0
    4.5723   -0.0664   -0.7137 C   0  0  0  0  0  0  0  0  0  0  0  0
    3.4361    0.6318   -1.1282 C   0  0  0  0  0  0  0  0  0  0  0  0
    2.1614    0.1407   -0.8226 C   0  0  0  0  0  0  0  0  0  0  0  0
    5.9163    0.4052   -1.0033 C   0  0  0  0  0  0  0  0  0  0  0  0
    6.9669   -0.3093   -0.5890 C   0  0  0  0  0  0  0  0  0  0  0  0
    6.8219   -1.5732    0.1550 C   0  0  0  0  0  0  0  0  0  0  0  0
    7.8103   -2.2066    0.5075 O   0  0  0  0  0  0  0  0  0  0  0  0
    5.5291   -2.0005    0.4237 O   0  0  0  0  0  0  0  0  0  0  0  0
   -5.5587    2.5505    1.6599 O   0  0  0  0  0  0  0  0  0  0  0  0
   -6.2805   -1.1434   -0.9715 H   0  0  0  0  0  0  0  0  0  0  0  0
   -5.7617    0.0621   -2.2141 H   0  0  0  0  0  0  0  0  0  0  0  0
   -7.4268    0.0361   -1.6203 H   0  0  0  0  0  0  0  0  0  0  0  0
   -3.1618    2.5087    2.6660 H   0  0  0  0  0  0  0  0  0  0  0  0
   -3.9295   -0.7915   -0.9856 H   0  0  0  0  0  0  0  0  0  0  0  0
   -1.5705   -1.5579   -0.7719 H   0  0  0  0  0  0  0  0  0  0  0  0
    3.0523   -2.6818    0.8694 H   0  0  0  0  0  0  0  0  0  0  0  0
    3.5274    1.5578   -1.6906 H   0  0  0  0  0  0  0  0  0  0  0  0
    1.2898    0.6882   -1.1695 H   0  0  0  0  0  0  0  0  0  0  0  0
    6.0476    1.3332   -1.5485 H   0  0  0  0  0  0  0  0  0  0  0  0
    7.9846    0.0074   -0.7818 H   0  0  0  0  0  0  0  0  0  0  0  0
   -6.3339    2.3289    1.1078 H   0  0  0  0  0  0  0  0  0  0  0  0
  1  2  1  0
  2  3  1  0
  3  4  1  0
  4  5  2  0
  5  6  1  0
  6  7  2  0
  7  8  1  0
  7  9  1  0
  9 10  2  0
 10 11  1  0
 11 12  2  0
 11 13  1  0
 10 14  1  0
 14 15  1  0
 15 16  2  0
 16 17  1  0
 17 18  2  0
 18 19  1  0
 19 20  2  0
 18 21  1  0
 21 22  2  0
 22 23  1  0
 23 24  2  0
 23 25  1  0
  4 26  1  0
  8  3  2  0
 13  6  1  0
 20 15  1  0
 25 17  1  0
  1 27  1  0
  1 28  1  0
  1 29  1  0
  5 30  1  0
  8 31  1  0
  9 32  1  0
 16 33  1  0
 19 34  1  0
 20 35  1  0
 21 36  1  0
 22 37  1  0
 26 38  1  0
M  END
>  <Name>  (740) 
Daphnoretin

>  <PubChem ID>  (740) 
5281406

>  <CDB ID>  (740) 
CDB0740

>  <Smiles>  (740) 
COC1=C(C=C2C(=C1)C=C(C(=O)O2)OC3=CC4=C(C=C3)C=CC(=O)O4)O

>  <Chemical class>  (740) 
Biscoumarins

>  <Natural source>  (740) 
Daphne mezereum

>  <Molecular Formula>  (740) 
C19H12O7

>  <InChI-Key>  (740) 
JRHMMVBOTXEHGJ-UHFFFAOYSA-N

>  <Total Molweight>  (740) 
352.297

>  <cLogP>  (740) 
2.3651

>  <cLogS>  (740) 
-4.234

>  <H-Acceptors>  (740) 
7

>  <H-Donors>  (740) 
1

>  <Rotatable Bonds>  (740) 
3

>  <Polar Surface Area>  (740) 
91.29

$$$$
CDB0741
     RDKit          3D

 41 44  0  0  0  0  0  0  0  0999 V2000
   -5.4936    2.8981    0.2426 C   0  0  0  0  0  0  0  0  0  0  0  0
   -5.5351    1.4872    0.3992 O   0  0  0  0  0  0  0  0  0  0  0  0
   -4.3883    0.7771    0.1406 C   0  0  0  0  0  0  0  0  0  0  0  0
   -4.4924   -0.6270    0.2647 C   0  0  0  0  0  0  0  0  0  0  0  0
   -3.3733   -1.4264    0.0213 C   0  0  0  0  0  0  0  0  0  0  0  0
   -2.1709   -0.8231   -0.3395 C   0  0  0  0  0  0  0  0  0  0  0  0
   -2.0481    0.5538   -0.4646 C   0  0  0  0  0  0  0  0  0  0  0  0
   -3.1644    1.3582   -0.2230 C   0  0  0  0  0  0  0  0  0  0  0  0
   -0.7583    1.1115   -0.8317 C   0  0  0  0  0  0  0  0  0  0  0  0
    0.2994    0.3166   -1.0405 C   0  0  0  0  0  0  0  0  0  0  0  0
    0.1692   -1.1720   -0.9768 C   0  0  0  0  0  0  0  0  0  0  0  0
    1.0891   -1.9330   -1.2556 O   0  0  0  0  0  0  0  0  0  0  0  0
   -1.0720   -1.6682   -0.5824 O   0  0  0  0  0  0  0  0  0  0  0  0
    1.5134    0.8968   -1.4035 O   0  0  0  0  0  0  0  0  0  0  0  0
    2.6395    0.5421   -0.6977 C   0  0  0  0  0  0  0  0  0  0  0  0
    3.8099    0.3649   -1.4322 C   0  0  0  0  0  0  0  0  0  0  0  0
    4.9836    0.0357   -0.7597 C   0  0  0  0  0  0  0  0  0  0  0  0
    5.0189   -0.1078    0.6265 C   0  0  0  0  0  0  0  0  0  0  0  0
    3.8461    0.0936    1.3574 C   0  0  0  0  0  0  0  0  0  0  0  0
    2.6576    0.4266    0.6972 C   0  0  0  0  0  0  0  0  0  0  0  0
    6.2762   -0.4583    1.2662 C   0  0  0  0  0  0  0  0  0  0  0  0
    7.3692   -0.6308    0.5167 C   0  0  0  0  0  0  0  0  0  0  0  0
    7.3575   -0.4761   -0.9489 C   0  0  0  0  0  0  0  0  0  0  0  0
    8.3836   -0.6325   -1.6009 O   0  0  0  0  0  0  0  0  0  0  0  0
    6.1449   -0.1447   -1.5371 O   0  0  0  0  0  0  0  0  0  0  0  0
   -5.7256   -1.1097    0.6266 O   0  0  0  0  0  0  0  0  0  0  0  0
   -5.8768   -2.5181    0.7375 C   0  0  0  0  0  0  0  0  0  0  0  0
   -6.4912    3.2889    0.4651 H   0  0  0  0  0  0  0  0  0  0  0  0
   -4.7933    3.3527    0.9508 H   0  0  0  0  0  0  0  0  0  0  0  0
   -5.2507    3.1748   -0.7886 H   0  0  0  0  0  0  0  0  0  0  0  0
   -3.4050   -2.5069    0.1016 H   0  0  0  0  0  0  0  0  0  0  0  0
   -3.0637    2.4341   -0.3197 H   0  0  0  0  0  0  0  0  0  0  0  0
   -0.6607    2.1886   -0.9184 H   0  0  0  0  0  0  0  0  0  0  0  0
    3.8058    0.4678   -2.5128 H   0  0  0  0  0  0  0  0  0  0  0  0
    3.8428   -0.0028    2.4404 H   0  0  0  0  0  0  0  0  0  0  0  0
    1.7597    0.5985    1.2840 H   0  0  0  0  0  0  0  0  0  0  0  0
    6.3088   -0.5783    2.3433 H   0  0  0  0  0  0  0  0  0  0  0  0
    8.3249   -0.8943    0.9530 H   0  0  0  0  0  0  0  0  0  0  0  0
   -6.9141   -2.7219    1.0202 H   0  0  0  0  0  0  0  0  0  0  0  0
   -5.2322   -2.9233    1.5244 H   0  0  0  0  0  0  0  0  0  0  0  0
   -5.6905   -3.0124   -0.2217 H   0  0  0  0  0  0  0  0  0  0  0  0
  1  2  1  0
  2  3  1  0
  3  4  1  0
  4  5  2  0
  5  6  1  0
  6  7  2  0
  7  8  1  0
  7  9  1  0
  9 10  2  0
 10 11  1  0
 11 12  2  0
 11 13  1  0
 10 14  1  0
 14 15  1  0
 15 16  2  0
 16 17  1  0
 17 18  2  0
 18 19  1  0
 19 20  2  0
 18 21  1  0
 21 22  2  0
 22 23  1  0
 23 24  2  0
 23 25  1  0
  4 26  1  0
 26 27  1  0
  8  3  2  0
 13  6  1  0
 20 15  1  0
 25 17  1  0
  1 28  1  0
  1 29  1  0
  1 30  1  0
  5 31  1  0
  8 32  1  0
  9 33  1  0
 16 34  1  0
 19 35  1  0
 20 36  1  0
 21 37  1  0
 22 38  1  0
 27 39  1  0
 27 40  1  0
 27 41  1  0
M  END
>  <Name>  (741) 
(Isodaphnoretin)

>  <PubChem ID>  (741) 
5318544

>  <CDB ID>  (741) 
CDB0741

>  <Smiles>  (741) 
COC1=C(C=C2C(=C1)C=C(C(=O)O2)OC3=CC4=C(C=C3)C=CC(=O)O4)OC

>  <Chemical class>  (741) 
Biscoumarins

>  <Natural source>  (741) 
Ruta graveolens, Stellera chamaejasme

>  <Molecular Formula>  (741) 
C20H14O7

>  <InChI-Key>  (741) 
BCLNKNUUTUITEA-UHFFFAOYSA-N

>  <Total Molweight>  (741) 
366.324

>  <cLogP>  (741) 
2.6408

>  <cLogS>  (741) 
-4.548

>  <H-Acceptors>  (741) 
7

>  <H-Donors>  (741) 
0

>  <Rotatable Bonds>  (741) 
4

>  <Polar Surface Area>  (741) 
80.29

$$$$
CDB0742
     RDKit          3D

 59 63  0  0  0  0  0  0  0  0999 V2000
   -2.4591   -3.3537   -1.4956 C   0  0  0  0  0  0  0  0  0  0  0  0
   -2.6510   -2.0987   -2.1418 O   0  0  0  0  0  0  0  0  0  0  0  0
   -1.6027   -1.2232   -2.0324 C   0  0  0  0  0  0  0  0  0  0  0  0
   -1.9083    0.1434   -1.9342 C   0  0  0  0  0  0  0  0  0  0  0  0
   -0.8928    1.0984   -1.9139 C   0  0  0  0  0  0  0  0  0  0  0  0
    0.4298    0.6732   -1.9527 C   0  0  0  0  0  0  0  0  0  0  0  0
    0.7613   -0.6750   -2.0345 C   0  0  0  0  0  0  0  0  0  0  0  0
   -0.2620   -1.6273   -2.0861 C   0  0  0  0  0  0  0  0  0  0  0  0
    2.1642   -1.0497   -2.0635 C   0  0  0  0  0  0  0  0  0  0  0  0
    3.1227   -0.1165   -1.9989 C   0  0  0  0  0  0  0  0  0  0  0  0
    2.7840    1.3398   -1.9787 C   0  0  0  0  0  0  0  0  0  0  0  0
    3.6386    2.2186   -2.0229 O   0  0  0  0  0  0  0  0  0  0  0  0
    1.4301    1.6613   -1.9176 O   0  0  0  0  0  0  0  0  0  0  0  0
    4.4578   -0.5158   -2.0294 O   0  0  0  0  0  0  0  0  0  0  0  0
    5.2774   -0.0709   -1.0180 C   0  0  0  0  0  0  0  0  0  0  0  0
    4.9047   -0.1100    0.3255 C   0  0  0  0  0  0  0  0  0  0  0  0
    5.8128    0.3348    1.2838 C   0  0  0  0  0  0  0  0  0  0  0  0
    7.0800    0.8023    0.9369 C   0  0  0  0  0  0  0  0  0  0  0  0
    7.4500    0.8167   -0.4091 C   0  0  0  0  0  0  0  0  0  0  0  0
    6.5509    0.3727   -1.3844 C   0  0  0  0  0  0  0  0  0  0  0  0
    7.9749    1.2568    1.9882 C   0  0  0  0  0  0  0  0  0  0  0  0
    7.5694    1.2144    3.2610 C   0  0  0  0  0  0  0  0  0  0  0  0
    6.2382    0.7179    3.6519 C   0  0  0  0  0  0  0  0  0  0  0  0
    5.9033    0.6888    4.8306 O   0  0  0  0  0  0  0  0  0  0  0  0
    5.4011    0.2896    2.6309 O   0  0  0  0  0  0  0  0  0  0  0  0
   -3.1971    0.6139   -1.9039 O   0  0  0  0  0  0  0  0  0  0  0  0
   -3.8442    0.3172   -0.6484 C   0  0  0  0  0  0  0  0  0  0  0  0
   -5.2930    0.8571   -0.7431 C   0  0  0  0  0  0  0  0  0  0  0  0
   -5.7979    1.3342    0.6315 C   0  0  0  0  0  0  0  0  0  0  0  0
   -5.2073    0.4896    1.7673 C   0  0  0  0  0  0  0  0  0  0  0  0
   -3.6673    0.6018    1.7381 C   0  0  0  0  0  0  0  0  0  0  0  0
   -3.1691    0.9678    0.4375 O   0  0  0  0  0  0  0  0  0  0  0  0
   -2.9112   -0.6154    2.3003 C   0  0  0  0  0  0  0  0  0  0  0  0
   -3.2224   -1.8362    1.6341 O   0  0  0  0  0  0  0  0  0  0  0  0
   -5.6533   -0.8687    1.6337 O   0  0  0  0  0  0  0  0  0  0  0  0
   -7.2345    1.2479    0.6707 O   0  0  0  0  0  0  0  0  0  0  0  0
   -6.1789   -0.1466   -1.2770 O   0  0  0  0  0  0  0  0  0  0  0  0
   -1.8784   -4.0268   -2.1340 H   0  0  0  0  0  0  0  0  0  0  0  0
   -3.4443   -3.8044   -1.3426 H   0  0  0  0  0  0  0  0  0  0  0  0
   -1.9846   -3.2430   -0.5145 H   0  0  0  0  0  0  0  0  0  0  0  0
   -1.1347    2.1543   -1.8538 H   0  0  0  0  0  0  0  0  0  0  0  0
   -0.0094   -2.6778   -2.1893 H   0  0  0  0  0  0  0  0  0  0  0  0
    2.4225   -2.1020   -2.1141 H   0  0  0  0  0  0  0  0  0  0  0  0
    3.9347   -0.4832    0.6359 H   0  0  0  0  0  0  0  0  0  0  0  0
    8.4301    1.1737   -0.7152 H   0  0  0  0  0  0  0  0  0  0  0  0
    6.8374    0.3902   -2.4331 H   0  0  0  0  0  0  0  0  0  0  0  0
    8.9590    1.6273    1.7235 H   0  0  0  0  0  0  0  0  0  0  0  0
    8.2046    1.5454    4.0735 H   0  0  0  0  0  0  0  0  0  0  0  0
   -3.8707   -0.7656   -0.4991 H   0  0  0  0  0  0  0  0  0  0  0  0
   -5.3499    1.6971   -1.4454 H   0  0  0  0  0  0  0  0  0  0  0  0
   -5.5144    2.3819    0.7925 H   0  0  0  0  0  0  0  0  0  0  0  0
   -5.5863    0.8258    2.7391 H   0  0  0  0  0  0  0  0  0  0  0  0
   -3.3956    1.4599    2.3656 H   0  0  0  0  0  0  0  0  0  0  0  0
   -1.8319   -0.4639    2.1994 H   0  0  0  0  0  0  0  0  0  0  0  0
   -3.1437   -0.7477    3.3619 H   0  0  0  0  0  0  0  0  0  0  0  0
   -4.2036   -1.8845    1.6069 H   0  0  0  0  0  0  0  0  0  0  0  0
   -6.6171   -0.8098    1.4662 H   0  0  0  0  0  0  0  0  0  0  0  0
   -7.5759    2.0032    0.1543 H   0  0  0  0  0  0  0  0  0  0  0  0
   -7.0469   -0.0009   -0.8557 H   0  0  0  0  0  0  0  0  0  0  0  0
  1  2  1  0
  2  3  1  0
  3  4  1  0
  4  5  2  0
  5  6  1  0
  6  7  2  0
  7  8  1  0
  7  9  1  0
  9 10  2  0
 10 11  1  0
 11 12  2  0
 11 13  1  0
 10 14  1  0
 14 15  1  0
 15 16  2  0
 16 17  1  0
 17 18  2  0
 18 19  1  0
 19 20  2  0
 18 21  1  0
 21 22  2  0
 22 23  1  0
 23 24  2  0
 23 25  1  0
  4 26  1  0
 26 27  1  0
 27 28  1  0
 28 29  1  0
 29 30  1  0
 30 31  1  0
 31 32  1  0
 31 33  1  0
 33 34  1  0
 30 35  1  0
 29 36  1  0
 28 37  1  0
  8  3  2  0
 13  6  1  0
 20 15  1  0
 25 17  1  0
 32 27  1  0
  1 38  1  0
  1 39  1  0
  1 40  1  0
  5 41  1  0
  8 42  1  0
  9 43  1  0
 16 44  1  0
 19 45  1  0
 20 46  1  0
 21 47  1  0
 22 48  1  0
 27 49  1  0
 28 50  1  0
 29 51  1  0
 30 52  1  0
 31 53  1  0
 33 54  1  0
 33 55  1  0
 34 56  1  0
 35 57  1  0
 36 58  1  0
 37 59  1  0
M  END
>  <Name>  (742) 
Daphnorin (Chamaejasmoside)

>  <PubChem ID>  (742) 
185819

>  <CDB ID>  (742) 
CDB0742

>  <Smiles>  (742) 
COC1=C(C=C2C(=C1)C=C(C(=O)O2)OC3=CC4=C(C=C3)C=CC(=O)O4)OC5C(C(C(C(O5)CO)O)O)O

>  <Chemical class>  (742) 
Biscoumarins

>  <Natural source>  (742) 
Daphne mezereum, Stellera chamaejasme

>  <Molecular Formula>  (742) 
C25H22O12

>  <InChI-Key>  (742) 
WYIIRKFHBPIFQZ-UHFFFAOYSA-N

>  <Total Molweight>  (742) 
514.438

>  <cLogP>  (742) 
0.3758

>  <cLogS>  (742) 
-4.12

>  <H-Acceptors>  (742) 
12

>  <H-Donors>  (742) 
4

>  <Rotatable Bonds>  (742) 
6

>  <Polar Surface Area>  (742) 
170.44

$$$$
CDB0743
     RDKit          3D

 77 81  0  0  0  0  0  0  0  0999 V2000
   -7.9804   -0.3753   -0.6323 C   0  0  0  0  0  0  0  0  0  0  0  0
   -7.7730    0.7577   -1.6451 C   0  0  0  0  0  0  0  0  0  0  0  0
   -8.8012    1.8800   -1.4320 C   0  0  0  0  0  0  0  0  0  0  0  0
   -8.6847    2.5704   -0.1051 C   0  0  0  0  0  0  0  0  0  0  0  0
   -9.1591    2.1959    0.9536 O   0  0  0  0  0  0  0  0  0  0  0  0
   -7.9532    3.6994   -0.1644 O   0  0  0  0  0  0  0  0  0  0  0  0
   -6.3379    1.3185   -1.6215 C   0  0  0  0  0  0  0  0  0  0  0  0
   -5.2891    0.2896   -1.9700 C   0  0  0  0  0  0  0  0  0  0  0  0
   -5.4985   -0.7164   -2.6375 O   0  0  0  0  0  0  0  0  0  0  0  0
   -4.0813    0.6726   -1.4719 O   0  0  0  0  0  0  0  0  0  0  0  0
   -3.0040   -0.2619   -1.6367 C   0  0  0  0  0  0  0  0  0  0  0  0
   -2.5997   -0.9324   -0.3126 C   0  0  0  0  0  0  0  0  0  0  0  0
   -3.7318   -1.7130    0.3869 C   0  0  0  0  0  0  0  0  0  0  0  0
   -3.2055   -2.3266    1.7005 C   0  0  0  0  0  0  0  0  0  0  0  0
   -2.5514   -1.2380    2.5765 C   0  0  0  0  0  0  0  0  0  0  0  0
   -1.4862   -0.4654    1.7618 C   0  0  0  0  0  0  0  0  0  0  0  0
   -2.0586    0.0765    0.5645 O   0  0  0  0  0  0  0  0  0  0  0  0
   -0.3992   -1.3564    1.5083 O   0  0  0  0  0  0  0  0  0  0  0  0
    0.7610   -0.8671    0.9683 C   0  0  0  0  0  0  0  0  0  0  0  0
    1.7586   -1.8331    0.7105 C   0  0  0  0  0  0  0  0  0  0  0  0
    2.9865   -1.4417    0.1602 C   0  0  0  0  0  0  0  0  0  0  0  0
    3.2251   -0.0970   -0.1354 C   0  0  0  0  0  0  0  0  0  0  0  0
    4.4822    0.3568   -0.7066 C   0  0  0  0  0  0  0  0  0  0  0  0
    4.6945    1.6607   -0.9522 C   0  0  0  0  0  0  0  0  0  0  0  0
    3.6241    2.6681   -0.7042 C   0  0  0  0  0  0  0  0  0  0  0  0
    3.7844    3.8592   -0.9495 O   0  0  0  0  0  0  0  0  0  0  0  0
    2.4290    2.1986   -0.1671 O   0  0  0  0  0  0  0  0  0  0  0  0
    2.2292    0.8362    0.1208 C   0  0  0  0  0  0  0  0  0  0  0  0
    0.9997    0.4730    0.6659 C   0  0  0  0  0  0  0  0  0  0  0  0
    5.8658    2.1464   -1.5269 O   0  0  0  0  0  0  0  0  0  0  0  0
    7.0745    1.6963   -1.0507 C   0  0  0  0  0  0  0  0  0  0  0  0
    7.3650    1.6135    0.3108 C   0  0  0  0  0  0  0  0  0  0  0  0
    8.6281    1.1726    0.6992 C   0  0  0  0  0  0  0  0  0  0  0  0
    9.6085    0.8335   -0.2327 C   0  0  0  0  0  0  0  0  0  0  0  0
    9.3150    0.9444   -1.5931 C   0  0  0  0  0  0  0  0  0  0  0  0
    8.0502    1.3819   -2.0005 C   0  0  0  0  0  0  0  0  0  0  0  0
   10.9072    0.3866    0.2431 C   0  0  0  0  0  0  0  0  0  0  0  0
   11.1337    0.3047    1.5578 C   0  0  0  0  0  0  0  0  0  0  0  0
   10.1110    0.6502    2.5610 C   0  0  0  0  0  0  0  0  0  0  0  0
   10.3502    0.5500    3.7586 O   0  0  0  0  0  0  0  0  0  0  0  0
    8.8816    1.0828    2.0823 O   0  0  0  0  0  0  0  0  0  0  0  0
    1.4211   -3.1268    1.0273 O   0  0  0  0  0  0  0  0  0  0  0  0
    2.3955   -4.1376    0.8035 C   0  0  0  0  0  0  0  0  0  0  0  0
   -3.5721   -0.3380    3.0449 O   0  0  0  0  0  0  0  0  0  0  0  0
   -2.3141   -3.4156    1.4369 O   0  0  0  0  0  0  0  0  0  0  0  0
   -4.8561   -0.8704    0.6766 O   0  0  0  0  0  0  0  0  0  0  0  0
   -8.0568    0.2346   -2.9563 O   0  0  0  0  0  0  0  0  0  0  0  0
   -7.3884   -1.2601   -0.8886 H   0  0  0  0  0  0  0  0  0  0  0  0
   -9.0256   -0.7061   -0.6320 H   0  0  0  0  0  0  0  0  0  0  0  0
   -7.7144   -0.0695    0.3841 H   0  0  0  0  0  0  0  0  0  0  0  0
   -9.8248    1.4927   -1.5202 H   0  0  0  0  0  0  0  0  0  0  0  0
   -8.7260    2.6283   -2.2323 H   0  0  0  0  0  0  0  0  0  0  0  0
   -7.9735    4.0451    0.7531 H   0  0  0  0  0  0  0  0  0  0  0  0
   -6.1091    1.7131   -0.6248 H   0  0  0  0  0  0  0  0  0  0  0  0
   -6.2345    2.1269   -2.3551 H   0  0  0  0  0  0  0  0  0  0  0  0
   -2.1567    0.3221   -2.0142 H   0  0  0  0  0  0  0  0  0  0  0  0
   -3.2264   -1.0251   -2.3908 H   0  0  0  0  0  0  0  0  0  0  0  0
   -1.7892   -1.6283   -0.5644 H   0  0  0  0  0  0  0  0  0  0  0  0
   -4.0822   -2.5068   -0.2822 H   0  0  0  0  0  0  0  0  0  0  0  0
   -4.0601   -2.7424    2.2483 H   0  0  0  0  0  0  0  0  0  0  0  0
   -2.0821   -1.7122    3.4468 H   0  0  0  0  0  0  0  0  0  0  0  0
   -1.1467    0.3775    2.3764 H   0  0  0  0  0  0  0  0  0  0  0  0
    3.7656   -2.1686   -0.0450 H   0  0  0  0  0  0  0  0  0  0  0  0
    5.2398   -0.3862   -0.9317 H   0  0  0  0  0  0  0  0  0  0  0  0
    0.2586    1.2482    0.8290 H   0  0  0  0  0  0  0  0  0  0  0  0
    6.6366    1.8967    1.0637 H   0  0  0  0  0  0  0  0  0  0  0  0
   10.0606    0.7011   -2.3463 H   0  0  0  0  0  0  0  0  0  0  0  0
    7.8265    1.4789   -3.0605 H   0  0  0  0  0  0  0  0  0  0  0  0
   11.6765    0.1282   -0.4763 H   0  0  0  0  0  0  0  0  0  0  0  0
   12.0877   -0.0223    1.9535 H   0  0  0  0  0  0  0  0  0  0  0  0
    3.2921   -3.9619    1.4069 H   0  0  0  0  0  0  0  0  0  0  0  0
    1.9644   -5.0928    1.1183 H   0  0  0  0  0  0  0  0  0  0  0  0
    2.6423   -4.2181   -0.2601 H   0  0  0  0  0  0  0  0  0  0  0  0
   -3.1711    0.2298    3.7284 H   0  0  0  0  0  0  0  0  0  0  0  0
   -1.4037   -3.0766    1.3207 H   0  0  0  0  0  0  0  0  0  0  0  0
   -4.6143   -0.3278    1.4579 H   0  0  0  0  0  0  0  0  0  0  0  0
   -7.4097   -0.4821   -3.1305 H   0  0  0  0  0  0  0  0  0  0  0  0
  1  2  1  0
  2  3  1  0
  3  4  1  0
  4  5  2  0
  4  6  1  0
  2  7  1  0
  7  8  1  0
  8  9  2  0
  8 10  1  0
 10 11  1  0
 11 12  1  0
 12 13  1  0
 13 14  1  0
 14 15  1  0
 15 16  1  0
 16 17  1  0
 16 18  1  0
 18 19  1  0
 19 20  1  0
 20 21  2  0
 21 22  1  0
 22 23  1  0
 23 24  2  0
 24 25  1  0
 25 26  2  0
 25 27  1  0
 27 28  1  0
 28 29  1  0
 24 30  1  0
 30 31  1  0
 31 32  2  0
 32 33  1  0
 33 34  2  0
 34 35  1  0
 35 36  2  0
 34 37  1  0
 37 38  2  0
 38 39  1  0
 39 40  2  0
 39 41  1  0
 20 42  1  0
 42 43  1  0
 15 44  1  0
 14 45  1  0
 13 46  1  0
  2 47  1  0
 17 12  1  0
 29 19  2  0
 28 22  2  0
 36 31  1  0
 41 33  1  0
  1 48  1  0
  1 49  1  0
  1 50  1  0
  3 51  1  0
  3 52  1  0
  6 53  1  0
  7 54  1  0
  7 55  1  0
 11 56  1  0
 11 57  1  0
 12 58  1  0
 13 59  1  0
 14 60  1  0
 15 61  1  0
 16 62  1  0
 21 63  1  0
 23 64  1  0
 29 65  1  0
 32 66  1  0
 35 67  1  0
 36 68  1  0
 37 69  1  0
 38 70  1  0
 43 71  1  0
 43 72  1  0
 43 73  1  0
 44 74  1  0
 45 75  1  0
 46 76  1  0
 47 77  1  0
M  END
>  <Name>  (743) 
Rutarensin

>  <PubChem ID>  (743) 
11958880

>  <CDB ID>  (743) 
CDB0743

>  <Smiles>  (743) 
CC(CC(=O)O)(CC(=O)OCC1C(C(C(C(O1)OC2=C(C=C3C=C(C(=O)OC3=C2)OC4=CC5=C(C=C4)C=CC(=O)O5)OC)O)O)O)O

>  <Chemical class>  (743) 
Biscoumarins

>  <Natural source>  (743) 
Ruta chalepensis

>  <Molecular Formula>  (743) 
C31H30O16

>  <InChI-Key>  (743) 
ZTLZGWDERZVHNS-UHFFFAOYSA-N

>  <Total Molweight>  (743) 
658.563

>  <cLogP>  (743) 
0.3061

>  <cLogS>  (743) 
-4.525

>  <H-Acceptors>  (743) 
16

>  <H-Donors>  (743) 
5

>  <Rotatable Bonds>  (743) 
12

>  <Polar Surface Area>  (743) 
234.04

$$$$
CDB0744
     RDKit          3D

 44 49  0  0  0  0  0  0  0  0999 V2000
    5.2672    0.7164   -0.9314 C   0  0  0  0  0  0  0  0  0  0  0  0
    4.0422    1.0889   -1.5660 O   0  0  0  0  0  0  0  0  0  0  0  0
    2.9746    0.8277   -0.7317 C   0  0  0  0  0  0  0  0  0  0  0  0
    2.6293    1.7222    0.3018 C   0  0  0  0  0  0  0  0  0  0  0  0
    3.1387    2.9547    0.7977 C   0  0  0  0  0  0  0  0  0  0  0  0
    2.3331    3.3158    1.8512 C   0  0  0  0  0  0  0  0  0  0  0  0
    1.3517    2.3969    2.0353 O   0  0  0  0  0  0  0  0  0  0  0  0
    1.5218    1.4267    1.0891 C   0  0  0  0  0  0  0  0  0  0  0  0
    0.6934    0.3131    0.9144 C   0  0  0  0  0  0  0  0  0  0  0  0
    1.0725   -0.5546   -0.1265 C   0  0  0  0  0  0  0  0  0  0  0  0
    2.1729   -0.3084   -0.9602 C   0  0  0  0  0  0  0  0  0  0  0  0
    2.4548   -1.2481   -2.0434 C   0  0  0  0  0  0  0  0  0  0  0  0
    1.7120   -2.3467   -2.2012 C   0  0  0  0  0  0  0  0  0  0  0  0
    0.5932   -2.6684   -1.3060 C   0  0  0  0  0  0  0  0  0  0  0  0
   -0.0498   -3.7013   -1.4415 O   0  0  0  0  0  0  0  0  0  0  0  0
    0.3198   -1.7422   -0.3122 O   0  0  0  0  0  0  0  0  0  0  0  0
   -0.3580    0.1312    1.7832 O   0  0  0  0  0  0  0  0  0  0  0  0
   -1.5683   -0.2560    1.2445 C   0  0  0  0  0  0  0  0  0  0  0  0
   -2.0611   -1.5437    1.5581 C   0  0  0  0  0  0  0  0  0  0  0  0
   -1.6072   -2.6535    2.3237 C   0  0  0  0  0  0  0  0  0  0  0  0
   -2.5619   -3.6360    2.1948 C   0  0  0  0  0  0  0  0  0  0  0  0
   -3.5826   -3.2109    1.4047 O   0  0  0  0  0  0  0  0  0  0  0  0
   -3.2758   -1.9413    1.0158 C   0  0  0  0  0  0  0  0  0  0  0  0
   -4.0572   -1.1395    0.1904 C   0  0  0  0  0  0  0  0  0  0  0  0
   -3.5772    0.1475   -0.0621 C   0  0  0  0  0  0  0  0  0  0  0  0
   -2.3660    0.6169    0.4653 C   0  0  0  0  0  0  0  0  0  0  0  0
   -2.0146    2.0124    0.2097 C   0  0  0  0  0  0  0  0  0  0  0  0
   -2.7871    2.7782   -0.5658 C   0  0  0  0  0  0  0  0  0  0  0  0
   -4.0190    2.2775   -1.1917 C   0  0  0  0  0  0  0  0  0  0  0  0
   -4.6829    2.9967   -1.9286 O   0  0  0  0  0  0  0  0  0  0  0  0
   -4.3771    0.9761   -0.8876 O   0  0  0  0  0  0  0  0  0  0  0  0
   -5.2441   -1.5765   -0.3341 O   0  0  0  0  0  0  0  0  0  0  0  0
    5.5006    1.3859   -0.0975 H   0  0  0  0  0  0  0  0  0  0  0  0
    5.2409   -0.3240   -0.5885 H   0  0  0  0  0  0  0  0  0  0  0  0
    6.0675    0.8082   -1.6717 H   0  0  0  0  0  0  0  0  0  0  0  0
    3.9900    3.5083    0.4274 H   0  0  0  0  0  0  0  0  0  0  0  0
    2.3218    4.1547    2.5337 H   0  0  0  0  0  0  0  0  0  0  0  0
    3.2725   -1.0331   -2.7240 H   0  0  0  0  0  0  0  0  0  0  0  0
    1.9007   -3.0562   -2.9977 H   0  0  0  0  0  0  0  0  0  0  0  0
   -0.6885   -2.7265    2.8882 H   0  0  0  0  0  0  0  0  0  0  0  0
   -2.6565   -4.6425    2.5785 H   0  0  0  0  0  0  0  0  0  0  0  0
   -1.1355    2.4362    0.6801 H   0  0  0  0  0  0  0  0  0  0  0  0
   -2.5480    3.8163   -0.7619 H   0  0  0  0  0  0  0  0  0  0  0  0
   -5.3527   -2.4991   -0.0355 H   0  0  0  0  0  0  0  0  0  0  0  0
  1  2  1  0
  2  3  1  0
  3  4  2  0
  4  5  1  0
  5  6  2  0
  6  7  1  0
  7  8  1  0
  8  9  2  0
  9 10  1  0
 10 11  2  0
 11 12  1  0
 12 13  2  0
 13 14  1  0
 14 15  2  0
 14 16  1  0
  9 17  1  0
 17 18  1  0
 18 19  2  0
 19 20  1  0
 20 21  2  0
 21 22  1  0
 22 23  1  0
 23 24  2  0
 24 25  1  0
 25 26  2  0
 26 27  1  0
 27 28  2  0
 28 29  1  0
 29 30  2  0
 29 31  1  0
 24 32  1  0
 11  3  1  0
  8  4  1  0
 16 10  1  0
 26 18  1  0
 23 19  1  0
 31 25  1  0
  1 33  1  0
  1 34  1  0
  1 35  1  0
  5 36  1  0
  6 37  1  0
 12 38  1  0
 13 39  1  0
 20 40  1  0
 21 41  1  0
 27 42  1  0
 28 43  1  0
 32 44  1  0
M  END
>  <Name>  (744) 
Rivulobirin B

>  <PubChem ID>  (744) 
91885013

>  <CDB ID>  (744) 
CDB0744

>  <Smiles>  (744) 
COC1=C2C=COC2=C(C3=C1C=CC(=O)O3)OC4=C5C=COC5=C(C6=C4C=CC(=O)O6)O

>  <Chemical class>  (744) 
Biscoumarins

>  <Natural source>  (744) 
Pleurospermum rivulorum

>  <Molecular Formula>  (744) 
C23H12O9

>  <InChI-Key>  (744) 
QYUOMKFQMCEXAF-UHFFFAOYSA-N

>  <Total Molweight>  (744) 
432.339

>  <cLogP>  (744) 
3.2183

>  <cLogS>  (744) 
-7.461

>  <H-Acceptors>  (744) 
9

>  <H-Donors>  (744) 
1

>  <Rotatable Bonds>  (744) 
3

>  <Polar Surface Area>  (744) 
117.57

$$$$
CDB0745
     RDKit          3D

110115  0  0  0  0  0  0  0  0999 V2000
   -1.3169   -3.6393   -2.8215 C   0  0  0  0  0  0  0  0  0  0  0  0
   -1.6587   -2.2996   -3.4815 C   0  0  0  0  0  0  0  0  0  0  0  0
   -0.4752   -1.3759   -3.4346 C   0  0  0  0  0  0  0  0  0  0  0  0
   -0.4136   -0.3448   -2.5901 C   0  0  0  0  0  0  0  0  0  0  0  0
   -1.5196   -0.1284   -1.6558 C   0  0  0  0  0  0  0  0  0  0  0  0
   -1.4260    0.8105   -0.6124 C   0  0  0  0  0  0  0  0  0  0  0  0
   -2.5479    1.1248    0.1642 C   0  0  0  0  0  0  0  0  0  0  0  0
   -3.7272    0.4208   -0.0613 C   0  0  0  0  0  0  0  0  0  0  0  0
   -3.8735   -0.5834   -1.0560 C   0  0  0  0  0  0  0  0  0  0  0  0
   -2.7271   -0.8384   -1.8477 C   0  0  0  0  0  0  0  0  0  0  0  0
   -2.8339   -1.7746   -2.8401 O   0  0  0  0  0  0  0  0  0  0  0  0
   -5.2370   -1.3226   -1.2056 C   0  0  0  0  0  0  0  0  0  0  0  0
   -5.4524   -2.1895    0.0643 C   0  0  0  0  0  0  0  0  0  0  0  0
   -5.3780   -2.3106   -2.3921 C   0  0  0  0  0  0  0  0  0  0  0  0
   -6.3529   -0.3001   -1.4686 C   0  0  0  0  0  0  0  0  0  0  0  0
   -7.4766   -0.1082   -0.7622 C   0  0  0  0  0  0  0  0  0  0  0  0
   -4.8388    0.7270    0.7607 O   0  0  0  0  0  0  0  0  0  0  0  0
   -4.8582    1.6988    1.7539 C   0  0  0  0  0  0  0  0  0  0  0  0
   -5.8768    1.8867    2.4087 O   0  0  0  0  0  0  0  0  0  0  0  0
   -3.5933    2.4653    1.9640 C   0  0  0  0  0  0  0  0  0  0  0  0
   -2.5281    2.1559    1.2018 C   0  0  0  0  0  0  0  0  0  0  0  0
   -3.5988    3.5709    3.0422 C   0  0  0  0  0  0  0  0  0  0  0  0
   -2.2559    4.3445    3.1266 C   0  0  0  0  0  0  0  0  0  0  0  0
   -4.6747    4.6292    2.6942 C   0  0  0  0  0  0  0  0  0  0  0  0
   -3.8434    3.0425    4.4572 C   0  0  0  0  0  0  0  0  0  0  0  0
   -3.6522    1.7954    4.9122 C   0  0  0  0  0  0  0  0  0  0  0  0
   -0.2559    1.4993   -0.3575 O   0  0  0  0  0  0  0  0  0  0  0  0
    0.8201    0.7952    0.1539 C   0  0  0  0  0  0  0  0  0  0  0  0
    0.7501   -0.2257    1.1129 C   0  0  0  0  0  0  0  0  0  0  0  0
    1.9277   -0.8567    1.5571 C   0  0  0  0  0  0  0  0  0  0  0  0
    3.1676   -0.5000    0.9895 C   0  0  0  0  0  0  0  0  0  0  0  0
    3.2548    0.6003    0.1208 C   0  0  0  0  0  0  0  0  0  0  0  0
    2.0802    1.2120   -0.2928 C   0  0  0  0  0  0  0  0  0  0  0  0
    2.1334    2.2745   -1.2183 O   0  0  0  0  0  0  0  0  0  0  0  0
    3.3193    2.7569   -1.7604 C   0  0  0  0  0  0  0  0  0  0  0  0
    3.2870    3.6156   -2.6331 O   0  0  0  0  0  0  0  0  0  0  0  0
    4.5931    2.1800   -1.2245 C   0  0  0  0  0  0  0  0  0  0  0  0
    4.5186    1.1663   -0.3417 C   0  0  0  0  0  0  0  0  0  0  0  0
    5.9168    2.8032   -1.7194 C   0  0  0  0  0  0  0  0  0  0  0  0
    7.1729    2.1563   -1.0727 C   0  0  0  0  0  0  0  0  0  0  0  0
    6.0679    2.5579   -3.2412 C   0  0  0  0  0  0  0  0  0  0  0  0
    5.9809    4.2735   -1.3038 C   0  0  0  0  0  0  0  0  0  0  0  0
    6.0959    5.3447   -2.1016 C   0  0  0  0  0  0  0  0  0  0  0  0
    4.3148   -1.1579    1.3612 O   0  0  0  0  0  0  0  0  0  0  0  0
    4.7380   -2.2944    0.5533 C   0  0  0  0  0  0  0  0  0  0  0  0
    4.2797   -2.2929   -0.9208 C   0  0  0  0  0  0  0  0  0  0  0  0
    6.2776   -2.2168    0.5588 C   0  0  0  0  0  0  0  0  0  0  0  0
    4.2169   -3.5684    1.2038 C   0  0  0  0  0  0  0  0  0  0  0  0
    4.9078   -4.5210    1.8473 C   0  0  0  0  0  0  0  0  0  0  0  0
    1.8326   -1.8088    2.6632 C   0  0  0  0  0  0  0  0  0  0  0  0
    0.6252   -2.2535    3.0217 C   0  0  0  0  0  0  0  0  0  0  0  0
   -0.6340   -1.7812    2.3438 C   0  0  0  0  0  0  0  0  0  0  0  0
   -0.4745   -0.5301    1.6477 O   0  0  0  0  0  0  0  0  0  0  0  0
   -1.1265   -2.8336    1.3448 C   0  0  0  0  0  0  0  0  0  0  0  0
   -1.7182   -1.5296    3.3976 C   0  0  0  0  0  0  0  0  0  0  0  0
   -2.0597   -2.5358   -4.9430 C   0  0  0  0  0  0  0  0  0  0  0  0
   -2.1766   -4.3190   -2.8512 H   0  0  0  0  0  0  0  0  0  0  0  0
   -1.0691   -3.5051   -1.7629 H   0  0  0  0  0  0  0  0  0  0  0  0
   -0.4696   -4.1317   -3.3110 H   0  0  0  0  0  0  0  0  0  0  0  0
    0.3501   -1.5591   -4.1168 H   0  0  0  0  0  0  0  0  0  0  0  0
    0.4318    0.3320   -2.5967 H   0  0  0  0  0  0  0  0  0  0  0  0
   -6.3742   -2.7802   -0.0039 H   0  0  0  0  0  0  0  0  0  0  0  0
   -4.6234   -2.8960    0.1964 H   0  0  0  0  0  0  0  0  0  0  0  0
   -5.5198   -1.6019    0.9847 H   0  0  0  0  0  0  0  0  0  0  0  0
   -5.2085   -1.8235   -3.3600 H   0  0  0  0  0  0  0  0  0  0  0  0
   -6.3891   -2.7384   -2.4323 H   0  0  0  0  0  0  0  0  0  0  0  0
   -4.6941   -3.1621   -2.2993 H   0  0  0  0  0  0  0  0  0  0  0  0
   -6.1965    0.3363   -2.3407 H   0  0  0  0  0  0  0  0  0  0  0  0
   -8.1863    0.6600   -1.0543 H   0  0  0  0  0  0  0  0  0  0  0  0
   -7.7140   -0.6825    0.1266 H   0  0  0  0  0  0  0  0  0  0  0  0
   -1.5854    2.6781    1.3221 H   0  0  0  0  0  0  0  0  0  0  0  0
   -2.0120    4.8318    2.1748 H   0  0  0  0  0  0  0  0  0  0  0  0
   -2.2951    5.1349    3.8874 H   0  0  0  0  0  0  0  0  0  0  0  0
   -1.4216    3.6858    3.3979 H   0  0  0  0  0  0  0  0  0  0  0  0
   -5.6956    4.2530    2.8120 H   0  0  0  0  0  0  0  0  0  0  0  0
   -4.5953    5.5080    3.3466 H   0  0  0  0  0  0  0  0  0  0  0  0
   -4.5636    4.9805    1.6613 H   0  0  0  0  0  0  0  0  0  0  0  0
   -4.1921    3.7826    5.1784 H   0  0  0  0  0  0  0  0  0  0  0  0
   -3.8625    1.5504    5.9491 H   0  0  0  0  0  0  0  0  0  0  0  0
   -3.2911    0.9924    4.2807 H   0  0  0  0  0  0  0  0  0  0  0  0
    5.4102    0.7331    0.0955 H   0  0  0  0  0  0  0  0  0  0  0  0
    7.2474    1.0893   -1.3157 H   0  0  0  0  0  0  0  0  0  0  0  0
    8.0942    2.6309   -1.4346 H   0  0  0  0  0  0  0  0  0  0  0  0
    7.1720    2.2560    0.0199 H   0  0  0  0  0  0  0  0  0  0  0  0
    5.9977    1.4880   -3.4733 H   0  0  0  0  0  0  0  0  0  0  0  0
    5.3072    3.0691   -3.8384 H   0  0  0  0  0  0  0  0  0  0  0  0
    7.0426    2.9052   -3.6059 H   0  0  0  0  0  0  0  0  0  0  0  0
    5.9243    4.4613   -0.2307 H   0  0  0  0  0  0  0  0  0  0  0  0
    6.1416    5.2672   -3.1827 H   0  0  0  0  0  0  0  0  0  0  0  0
    6.1226    6.3457   -1.6811 H   0  0  0  0  0  0  0  0  0  0  0  0
    3.1875   -2.2966   -1.0139 H   0  0  0  0  0  0  0  0  0  0  0  0
    4.6479   -1.4139   -1.4587 H   0  0  0  0  0  0  0  0  0  0  0  0
    4.6540   -3.1774   -1.4505 H   0  0  0  0  0  0  0  0  0  0  0  0
    6.6707   -2.1742    1.5816 H   0  0  0  0  0  0  0  0  0  0  0  0
    6.7357   -3.0663    0.0403 H   0  0  0  0  0  0  0  0  0  0  0  0
    6.6225   -1.3005    0.0665 H   0  0  0  0  0  0  0  0  0  0  0  0
    3.1423   -3.7219    1.1119 H   0  0  0  0  0  0  0  0  0  0  0  0
    5.9811   -4.4730    1.9951 H   0  0  0  0  0  0  0  0  0  0  0  0
    4.3961   -5.3872    2.2577 H   0  0  0  0  0  0  0  0  0  0  0  0
    2.7341   -2.1375    3.1684 H   0  0  0  0  0  0  0  0  0  0  0  0
    0.5392   -2.9858    3.8197 H   0  0  0  0  0  0  0  0  0  0  0  0
   -0.3883   -2.9997    0.5518 H   0  0  0  0  0  0  0  0  0  0  0  0
   -2.0442   -2.5009    0.8482 H   0  0  0  0  0  0  0  0  0  0  0  0
   -1.3273   -3.7948    1.8306 H   0  0  0  0  0  0  0  0  0  0  0  0
   -1.4017   -0.7543    4.1056 H   0  0  0  0  0  0  0  0  0  0  0  0
   -1.9587   -2.4355    3.9648 H   0  0  0  0  0  0  0  0  0  0  0  0
   -2.6395   -1.1636    2.9291 H   0  0  0  0  0  0  0  0  0  0  0  0
   -1.2484   -2.9878   -5.5243 H   0  0  0  0  0  0  0  0  0  0  0  0
   -2.3474   -1.5944   -5.4269 H   0  0  0  0  0  0  0  0  0  0  0  0
   -2.9351   -3.1932   -5.0058 H   0  0  0  0  0  0  0  0  0  0  0  0
  1  2  1  0
  2  3  1  0
  3  4  2  0
  4  5  1  0
  5  6  2  0
  6  7  1  0
  7  8  2  0
  8  9  1  0
  9 10  2  0
 10 11  1  0
  9 12  1  0
 12 13  1  0
 12 14  1  0
 12 15  1  0
 15 16  2  0
  8 17  1  0
 17 18  1  0
 18 19  2  0
 18 20  1  0
 20 21  2  0
 20 22  1  0
 22 23  1  0
 22 24  1  0
 22 25  1  0
 25 26  2  0
  6 27  1  0
 27 28  1  0
 28 29  2  0
 29 30  1  0
 30 31  2  0
 31 32  1  0
 32 33  2  0
 33 34  1  0
 34 35  1  0
 35 36  2  0
 35 37  1  0
 37 38  2  0
 37 39  1  0
 39 40  1  0
 39 41  1  0
 39 42  1  0
 42 43  2  0
 31 44  1  0
 44 45  1  0
 45 46  1  0
 45 47  1  0
 45 48  1  0
 48 49  2  0
 30 50  1  0
 50 51  2  0
 51 52  1  0
 52 53  1  0
 52 54  1  0
 52 55  1  0
  2 56  1  0
 11  2  1  0
 10  5  1  0
 21  7  1  0
 33 28  1  0
 53 29  1  0
 38 32  1  0
  1 57  1  0
  1 58  1  0
  1 59  1  0
  3 60  1  0
  4 61  1  0
 13 62  1  0
 13 63  1  0
 13 64  1  0
 14 65  1  0
 14 66  1  0
 14 67  1  0
 15 68  1  0
 16 69  1  0
 16 70  1  0
 21 71  1  0
 23 72  1  0
 23 73  1  0
 23 74  1  0
 24 75  1  0
 24 76  1  0
 24 77  1  0
 25 78  1  0
 26 79  1  0
 26 80  1  0
 38 81  1  0
 40 82  1  0
 40 83  1  0
 40 84  1  0
 41 85  1  0
 41 86  1  0
 41 87  1  0
 42 88  1  0
 43 89  1  0
 43 90  1  0
 46 91  1  0
 46 92  1  0
 46 93  1  0
 47 94  1  0
 47 95  1  0
 47 96  1  0
 48 97  1  0
 49 98  1  0
 49 99  1  0
 50100  1  0
 51101  1  0
 54102  1  0
 54103  1  0
 54104  1  0
 55105  1  0
 55106  1  0
 55107  1  0
 56108  1  0
 56109  1  0
 56110  1  0
M  END
>  <Name>  (745) 
Marshdimerin

>  <PubChem ID>  (745) 
15336444

>  <CDB ID>  (745) 
CDB0745

>  <Smiles>  (745) 
CC1(C=CC2=C(C3=C(C(=C2O1)C(C)(C)C=C)OC(=O)C(=C3)C(C)(C)C=C)OC4=C5C(=C(C6=C4OC(=O)C(=C6)C(C)(C)C=C)OC(C)(C)C=C)C=CC(O5)(C)C)C

>  <Chemical class>  (745) 
Biscoumarins

>  <Natural source>  (745) 
Citrus paradisi

>  <Molecular Formula>  (745) 
C48H54O8

>  <InChI-Key>  (745) 
NBUQNPBZWAGFSQ-UHFFFAOYSA-N

>  <Total Molweight>  (745) 
758.949

>  <cLogP>  (745) 
11.875

>  <cLogS>  (745) 
-12.202

>  <H-Acceptors>  (745) 
8

>  <H-Donors>  (745) 
0

>  <Rotatable Bonds>  (745) 
11

>  <Polar Surface Area>  (745) 
89.52

$$$$
CDB0746
     RDKit          3D

 39 42  0  0  0  0  0  0  0  0999 V2000
   -1.2323    3.7590    1.2728 C   0  0  0  0  0  0  0  0  0  0  0  0
   -1.2320    3.0118    0.0596 O   0  0  0  0  0  0  0  0  0  0  0  0
   -1.7847    1.7603    0.1497 C   0  0  0  0  0  0  0  0  0  0  0  0
   -1.2119    0.7533   -0.6400 C   0  0  0  0  0  0  0  0  0  0  0  0
   -1.7648   -0.5324   -0.6264 C   0  0  0  0  0  0  0  0  0  0  0  0
   -2.8554   -0.8398    0.1868 C   0  0  0  0  0  0  0  0  0  0  0  0
   -3.4150    0.1631    0.9807 C   0  0  0  0  0  0  0  0  0  0  0  0
   -2.8887    1.4603    0.9546 C   0  0  0  0  0  0  0  0  0  0  0  0
   -3.3875   -2.1932    0.1822 C   0  0  0  0  0  0  0  0  0  0  0  0
   -2.8324   -3.1185   -0.6056 C   0  0  0  0  0  0  0  0  0  0  0  0
   -1.6912   -2.8218   -1.4871 C   0  0  0  0  0  0  0  0  0  0  0  0
   -1.2064   -3.6938   -2.1982 O   0  0  0  0  0  0  0  0  0  0  0  0
   -1.2097   -1.5216   -1.4676 O   0  0  0  0  0  0  0  0  0  0  0  0
   -0.1428    1.0863   -1.4447 O   0  0  0  0  0  0  0  0  0  0  0  0
    1.0359    0.4056   -1.2282 C   0  0  0  0  0  0  0  0  0  0  0  0
    1.6739   -0.1161   -2.3563 C   0  0  0  0  0  0  0  0  0  0  0  0
    2.8757   -0.8090   -2.2505 C   0  0  0  0  0  0  0  0  0  0  0  0
    3.4618   -0.9677   -0.9947 C   0  0  0  0  0  0  0  0  0  0  0  0
    2.8645   -0.4271    0.1524 C   0  0  0  0  0  0  0  0  0  0  0  0
    1.6557    0.2635    0.0181 C   0  0  0  0  0  0  0  0  0  0  0  0
    1.0536    0.8543    1.1513 O   0  0  0  0  0  0  0  0  0  0  0  0
    1.6014    0.7586    2.4199 C   0  0  0  0  0  0  0  0  0  0  0  0
    1.0743    1.2679    3.4023 O   0  0  0  0  0  0  0  0  0  0  0  0
    2.8592    0.0067    2.5377 C   0  0  0  0  0  0  0  0  0  0  0  0
    3.4560   -0.5503    1.4802 C   0  0  0  0  0  0  0  0  0  0  0  0
    4.6422   -1.6519   -0.8781 O   0  0  0  0  0  0  0  0  0  0  0  0
    1.1330    0.0279   -3.6046 O   0  0  0  0  0  0  0  0  0  0  0  0
   -2.2150    4.2076    1.4477 H   0  0  0  0  0  0  0  0  0  0  0  0
   -0.5090    4.5727    1.1631 H   0  0  0  0  0  0  0  0  0  0  0  0
   -0.9227    3.1490    2.1285 H   0  0  0  0  0  0  0  0  0  0  0  0
   -4.2710   -0.0455    1.6188 H   0  0  0  0  0  0  0  0  0  0  0  0
   -3.3652    2.2244    1.5615 H   0  0  0  0  0  0  0  0  0  0  0  0
   -4.2290   -2.4346    0.8224 H   0  0  0  0  0  0  0  0  0  0  0  0
   -3.1982   -4.1377   -0.6361 H   0  0  0  0  0  0  0  0  0  0  0  0
    3.3325   -1.2123   -3.1485 H   0  0  0  0  0  0  0  0  0  0  0  0
    3.2775   -0.0677    3.5337 H   0  0  0  0  0  0  0  0  0  0  0  0
    4.3861   -1.0995    1.5855 H   0  0  0  0  0  0  0  0  0  0  0  0
    4.8975   -1.9870   -1.7547 H   0  0  0  0  0  0  0  0  0  0  0  0
    0.2841    0.4953   -3.4882 H   0  0  0  0  0  0  0  0  0  0  0  0
  1  2  1  0
  2  3  1  0
  3  4  2  0
  4  5  1  0
  5  6  2  0
  6  7  1  0
  7  8  2  0
  6  9  1  0
  9 10  2  0
 10 11  1  0
 11 12  2  0
 11 13  1  0
  4 14  1  0
 14 15  1  0
 15 16  1  0
 16 17  2  0
 17 18  1  0
 18 19  2  0
 19 20  1  0
 20 21  1  0
 21 22  1  0
 22 23  2  0
 22 24  1  0
 24 25  2  0
 18 26  1  0
 16 27  1  0
  8  3  1  0
 13  5  1  0
 20 15  2  0
 25 19  1  0
  1 28  1  0
  1 29  1  0
  1 30  1  0
  7 31  1  0
  8 32  1  0
  9 33  1  0
 10 34  1  0
 17 35  1  0
 24 36  1  0
 25 37  1  0
 26 38  1  0
 27 39  1  0
M  END
>  <Name>  (746) 
Boennin

>  <PubChem ID>  (746) 
15380215

>  <CDB ID>  (746) 
CDB0746

>  <Smiles>  (746) 
COC1=C(C2=C(C=C1)C=CC(=O)O2)OC3=C(C=C(C4=C3OC(=O)C=C4)O)O

>  <Chemical class>  (746) 
Biscoumarins

>  <Natural source>  (746) 
Boenninghausenia albiflora

>  <Molecular Formula>  (746) 
C19H12O8

>  <InChI-Key>  (746) 
UOWOBKCJCCNEOP-UHFFFAOYSA-N

>  <Total Molweight>  (746) 
368.296

>  <cLogP>  (746) 
1.9694

>  <cLogS>  (746) 
-4.847

>  <H-Acceptors>  (746) 
8

>  <H-Donors>  (746) 
2

>  <Rotatable Bonds>  (746) 
3

>  <Polar Surface Area>  (746) 
111.52

$$$$
CDB0747
     RDKit          3D

 31 35  0  0  0  0  0  0  0  0999 V2000
   -4.0641   -0.0515    1.8078 C   0  0  0  0  0  0  0  0  0  0  0  0
   -5.3494   -0.1561    1.4572 C   0  0  0  0  0  0  0  0  0  0  0  0
   -5.7782   -0.3181    0.0573 C   0  0  0  0  0  0  0  0  0  0  0  0
   -6.9664   -0.4109   -0.2265 O   0  0  0  0  0  0  0  0  0  0  0  0
   -4.7768   -0.3588   -0.9027 O   0  0  0  0  0  0  0  0  0  0  0  0
   -3.4124   -0.2499   -0.5515 C   0  0  0  0  0  0  0  0  0  0  0  0
   -2.4939   -0.3040   -1.6017 C   0  0  0  0  0  0  0  0  0  0  0  0
   -1.1569   -0.1948   -1.2328 C   0  0  0  0  0  0  0  0  0  0  0  0
   -0.7143   -0.0408    0.0782 C   0  0  0  0  0  0  0  0  0  0  0  0
   -1.6719    0.0098    1.1134 C   0  0  0  0  0  0  0  0  0  0  0  0
   -3.0317   -0.0969    0.7835 C   0  0  0  0  0  0  0  0  0  0  0  0
    0.7091    0.0293    0.0046 C   0  0  0  0  0  0  0  0  0  0  0  0
    1.0273   -0.0872   -1.3458 C   0  0  0  0  0  0  0  0  0  0  0  0
   -0.1023   -0.2226   -2.0922 O   0  0  0  0  0  0  0  0  0  0  0  0
    2.3235   -0.0668   -1.8509 C   0  0  0  0  0  0  0  0  0  0  0  0
    3.3355    0.0824   -0.9005 C   0  0  0  0  0  0  0  0  0  0  0  0
    3.0810    0.2041    0.4673 C   0  0  0  0  0  0  0  0  0  0  0  0
    1.7585    0.1787    0.9359 C   0  0  0  0  0  0  0  0  0  0  0  0
    4.2039    0.3557    1.3801 C   0  0  0  0  0  0  0  0  0  0  0  0
    5.4504    0.3757    0.8985 C   0  0  0  0  0  0  0  0  0  0  0  0
    5.7465    0.2493   -0.5388 C   0  0  0  0  0  0  0  0  0  0  0  0
    6.9026    0.2720   -0.9439 O   0  0  0  0  0  0  0  0  0  0  0  0
    4.6605    0.1058   -1.3909 O   0  0  0  0  0  0  0  0  0  0  0  0
   -3.7765    0.0671    2.8468 H   0  0  0  0  0  0  0  0  0  0  0  0
   -6.1459   -0.1267    2.1910 H   0  0  0  0  0  0  0  0  0  0  0  0
   -2.7949   -0.4228   -2.6347 H   0  0  0  0  0  0  0  0  0  0  0  0
   -1.3521    0.1293    2.1442 H   0  0  0  0  0  0  0  0  0  0  0  0
    2.5267   -0.1607   -2.9099 H   0  0  0  0  0  0  0  0  0  0  0  0
    1.5364    0.2716    1.9948 H   0  0  0  0  0  0  0  0  0  0  0  0
    4.0145    0.4508    2.4438 H   0  0  0  0  0  0  0  0  0  0  0  0
    6.3114    0.4867    1.5466 H   0  0  0  0  0  0  0  0  0  0  0  0
  1  2  2  0
  2  3  1  0
  3  4  2  0
  3  5  1  0
  5  6  1  0
  6  7  1  0
  7  8  2  0
  8  9  1  0
  9 10  2  0
 10 11  1  0
  9 12  1  0
 12 13  1  0
 13 14  1  0
 13 15  2  0
 15 16  1  0
 16 17  2  0
 17 18  1  0
 17 19  1  0
 19 20  2  0
 20 21  1  0
 21 22  2  0
 21 23  1  0
 11  1  1  0
 11  6  2  0
 14  8  1  0
 18 12  2  0
 23 16  1  0
  1 24  1  0
  2 25  1  0
  7 26  1  0
 10 27  1  0
 15 28  1  0
 18 29  1  0
 19 30  1  0
 20 31  1  0
M  END
>  <Name>  (747) 
Lasioerin

>  <PubChem ID>  (747) 
85976174

>  <CDB ID>  (747) 
CDB0747

>  <Smiles>  (747) 
C1=CC(=O)OC2=CC3=C(C=C21)C4=C(O3)C=C5C(=C4)C=CC(=O)O5

>  <Chemical class>  (747) 
Biscoumarins

>  <Natural source>  (747) 
Lasiosiphon eriocephalus

>  <Molecular Formula>  (747) 
C18H8O5

>  <InChI-Key>  (747) 
AWAIQKLPNLKRRV-UHFFFAOYSA-N

>  <Total Molweight>  (747) 
304.257

>  <cLogP>  (747) 
3.1037

>  <cLogS>  (747) 
-5.784

>  <H-Acceptors>  (747) 
5

>  <H-Donors>  (747) 
0

>  <Rotatable Bonds>  (747) 
0

>  <Polar Surface Area>  (747) 
65.74

$$$$
CDB0748
     RDKit          3D

 37 40  0  0  0  0  0  0  0  0999 V2000
    5.2819    1.2530    0.5549 C   0  0  0  0  0  0  0  0  0  0  0  0
    5.5195    0.3515    1.5928 C   0  0  0  0  0  0  0  0  0  0  0  0
    4.6171   -0.6817    1.8325 C   0  0  0  0  0  0  0  0  0  0  0  0
    3.4850   -0.7973    1.0263 C   0  0  0  0  0  0  0  0  0  0  0  0
    3.2249    0.0886   -0.0126 C   0  0  0  0  0  0  0  0  0  0  0  0
    4.1405    1.1220   -0.2439 C   0  0  0  0  0  0  0  0  0  0  0  0
    2.0159   -0.1084   -0.8088 C   0  0  0  0  0  0  0  0  0  0  0  0
    1.1811   -1.1341   -0.5643 C   0  0  0  0  0  0  0  0  0  0  0  0
    1.4474   -2.0537    0.5713 C   0  0  0  0  0  0  0  0  0  0  0  0
    0.6655   -2.9513    0.8641 O   0  0  0  0  0  0  0  0  0  0  0  0
    2.6039   -1.8524    1.3101 O   0  0  0  0  0  0  0  0  0  0  0  0
   -0.0180   -1.4856   -1.4206 C   0  0  0  0  0  0  0  0  0  0  0  0
   -1.3399   -1.0372   -0.8440 C   0  0  0  0  0  0  0  0  0  0  0  0
   -1.6868    0.2517   -0.6928 C   0  0  0  0  0  0  0  0  0  0  0  0
   -2.9789    0.6258   -0.1116 C   0  0  0  0  0  0  0  0  0  0  0  0
   -3.4632    1.9383   -0.0279 C   0  0  0  0  0  0  0  0  0  0  0  0
   -4.6970    2.2057    0.5789 C   0  0  0  0  0  0  0  0  0  0  0  0
   -5.4658    1.1661    1.1006 C   0  0  0  0  0  0  0  0  0  0  0  0
   -5.0112   -0.1449    1.0009 C   0  0  0  0  0  0  0  0  0  0  0  0
   -3.7828   -0.3954    0.3895 C   0  0  0  0  0  0  0  0  0  0  0  0
   -3.4097   -1.7433    0.2583 O   0  0  0  0  0  0  0  0  0  0  0  0
   -2.2965   -2.1148   -0.4824 C   0  0  0  0  0  0  0  0  0  0  0  0
   -2.1275   -3.2797   -0.8230 O   0  0  0  0  0  0  0  0  0  0  0  0
   -0.8169    1.2646   -1.0561 O   0  0  0  0  0  0  0  0  0  0  0  0
    1.8024    0.8303   -1.7982 O   0  0  0  0  0  0  0  0  0  0  0  0
    5.9865    2.0586    0.3627 H   0  0  0  0  0  0  0  0  0  0  0  0
    6.4077    0.4538    2.2111 H   0  0  0  0  0  0  0  0  0  0  0  0
    4.7927   -1.3901    2.6369 H   0  0  0  0  0  0  0  0  0  0  0  0
    3.9764    1.8314   -1.0521 H   0  0  0  0  0  0  0  0  0  0  0  0
    0.0855   -1.0472   -2.4226 H   0  0  0  0  0  0  0  0  0  0  0  0
   -0.0016   -2.5645   -1.6183 H   0  0  0  0  0  0  0  0  0  0  0  0
   -2.9123    2.7772   -0.4434 H   0  0  0  0  0  0  0  0  0  0  0  0
   -5.0620    3.2289    0.6388 H   0  0  0  0  0  0  0  0  0  0  0  0
   -6.4240    1.3764    1.5695 H   0  0  0  0  0  0  0  0  0  0  0  0
   -5.6116   -0.9664    1.3821 H   0  0  0  0  0  0  0  0  0  0  0  0
   -0.9649    2.0180   -0.4546 H   0  0  0  0  0  0  0  0  0  0  0  0
    0.8366    0.9062   -1.9396 H   0  0  0  0  0  0  0  0  0  0  0  0
  1  2  2  0
  2  3  1  0
  3  4  2  0
  4  5  1  0
  5  6  2  0
  5  7  1  0
  7  8  2  0
  8  9  1  0
  9 10  2  0
  9 11  1  0
  8 12  1  0
 12 13  1  0
 13 14  2  0
 14 15  1  0
 15 16  2  0
 16 17  1  0
 17 18  2  0
 18 19  1  0
 19 20  2  0
 20 21  1  0
 21 22  1  0
 22 23  2  0
 14 24  1  0
  7 25  1  0
  6  1  1  0
 11  4  1  0
 22 13  1  0
 20 15  1  0
  1 26  1  0
  2 27  1  0
  3 28  1  0
  6 29  1  0
 12 30  1  0
 12 31  1  0
 16 32  1  0
 17 33  1  0
 18 34  1  0
 19 35  1  0
 24 36  1  0
 25 37  1  0
M  END
>  <Name>  (748) 
Dicoumarol

>  <PubChem ID>  (748) 
54676038

>  <CDB ID>  (748) 
CDB0748

>  <Smiles>  (748) 
C1=CC=C2C(=C1)C(=C(C(=O)O2)CC3=C(C4=CC=CC=C4OC3=O)O)O

>  <Chemical class>  (748) 
Biscoumarins

>  <Natural source>  (748) 
Melilotus alba

>  <Molecular Formula>  (748) 
C19H12O6

>  <InChI-Key>  (748) 
DOBMPNYZJYQDGZ-UHFFFAOYSA-N

>  <Total Molweight>  (748) 
336.298

>  <cLogP>  (748) 
2.588

>  <cLogS>  (748) 
-3.34

>  <H-Acceptors>  (748) 
6

>  <H-Donors>  (748) 
2

>  <Rotatable Bonds>  (748) 
2

>  <Polar Surface Area>  (748) 
93.06

$$$$
CDB0749
     RDKit          3D

 43 46  0  0  0  0  0  0  0  0999 V2000
   -3.0110    2.7367   -0.7667 C   0  0  0  0  0  0  0  0  0  0  0  0
   -3.6312    1.3968   -0.4685 C   0  0  0  0  0  0  0  0  0  0  0  0
   -2.9823    0.1589   -0.6798 C   0  0  0  0  0  0  0  0  0  0  0  0
   -3.6293   -0.9949   -0.2213 C   0  0  0  0  0  0  0  0  0  0  0  0
   -4.9107   -0.9791    0.3288 C   0  0  0  0  0  0  0  0  0  0  0  0
   -5.5741    0.2308    0.4587 C   0  0  0  0  0  0  0  0  0  0  0  0
   -4.9353    1.4085    0.0739 C   0  0  0  0  0  0  0  0  0  0  0  0
   -2.9918   -2.2505   -0.2339 O   0  0  0  0  0  0  0  0  0  0  0  0
   -1.6538   -2.3800   -0.5663 C   0  0  0  0  0  0  0  0  0  0  0  0
   -1.0421   -3.4189   -0.3531 O   0  0  0  0  0  0  0  0  0  0  0  0
   -1.0274   -1.2269   -1.2474 C   0  0  0  0  0  0  0  0  0  0  0  0
   -1.6751   -0.0544   -1.3214 C   0  0  0  0  0  0  0  0  0  0  0  0
   -1.1178    0.9790   -2.0520 O   0  0  0  0  0  0  0  0  0  0  0  0
    0.3095   -1.4856   -1.9087 C   0  0  0  0  0  0  0  0  0  0  0  0
    1.4796   -1.4217   -0.9512 C   0  0  0  0  0  0  0  0  0  0  0  0
    1.8941   -0.3122   -0.3069 C   0  0  0  0  0  0  0  0  0  0  0  0
    3.0159   -0.3498    0.6548 C   0  0  0  0  0  0  0  0  0  0  0  0
    3.5348    0.7500    1.3809 C   0  0  0  0  0  0  0  0  0  0  0  0
    4.5938    0.5467    2.2941 C   0  0  0  0  0  0  0  0  0  0  0  0
    5.1449   -0.7160    2.4982 C   0  0  0  0  0  0  0  0  0  0  0  0
    4.6481   -1.7969    1.7882 C   0  0  0  0  0  0  0  0  0  0  0  0
    3.6025   -1.5985    0.8844 C   0  0  0  0  0  0  0  0  0  0  0  0
    3.1870   -2.7492    0.1933 O   0  0  0  0  0  0  0  0  0  0  0  0
    2.2244   -2.6968   -0.7957 C   0  0  0  0  0  0  0  0  0  0  0  0
    2.0222   -3.6628   -1.5236 O   0  0  0  0  0  0  0  0  0  0  0  0
    3.0136    2.1570    1.2436 C   0  0  0  0  0  0  0  0  0  0  0  0
    1.3046    0.9234   -0.4810 O   0  0  0  0  0  0  0  0  0  0  0  0
   -3.5091    3.5364   -0.2065 H   0  0  0  0  0  0  0  0  0  0  0  0
   -3.1006    2.9722   -1.8311 H   0  0  0  0  0  0  0  0  0  0  0  0
   -1.9609    2.7617   -0.4597 H   0  0  0  0  0  0  0  0  0  0  0  0
   -5.3761   -1.9016    0.6647 H   0  0  0  0  0  0  0  0  0  0  0  0
   -6.5731    0.2643    0.8861 H   0  0  0  0  0  0  0  0  0  0  0  0
   -5.4591    2.3526    0.2206 H   0  0  0  0  0  0  0  0  0  0  0  0
   -1.8481    1.4165   -2.5291 H   0  0  0  0  0  0  0  0  0  0  0  0
    0.4929   -0.7641   -2.7164 H   0  0  0  0  0  0  0  0  0  0  0  0
    0.2527   -2.4438   -2.4390 H   0  0  0  0  0  0  0  0  0  0  0  0
    4.9970    1.3856    2.8593 H   0  0  0  0  0  0  0  0  0  0  0  0
    5.9584   -0.8511    3.2055 H   0  0  0  0  0  0  0  0  0  0  0  0
    5.0694   -2.7882    1.9292 H   0  0  0  0  0  0  0  0  0  0  0  0
    1.9697    2.2138    1.5674 H   0  0  0  0  0  0  0  0  0  0  0  0
    3.5774    2.8579    1.8695 H   0  0  0  0  0  0  0  0  0  0  0  0
    3.1168    2.5072    0.2119 H   0  0  0  0  0  0  0  0  0  0  0  0
    0.5995    0.8917   -1.1538 H   0  0  0  0  0  0  0  0  0  0  0  0
  1  2  1  0
  2  3  1  0
  3  4  2  0
  4  5  1  0
  5  6  2  0
  6  7  1  0
  4  8  1  0
  8  9  1  0
  9 10  2  0
  9 11  1  0
 11 12  2  0
 12 13  1  0
 11 14  1  0
 14 15  1  0
 15 16  2  0
 16 17  1  0
 17 18  1  0
 18 19  2  0
 19 20  1  0
 20 21  2  0
 21 22  1  0
 22 23  1  0
 23 24  1  0
 24 25  2  0
 18 26  1  0
 16 27  1  0
  7  2  2  0
 12  3  1  0
 24 15  1  0
 22 17  2  0
  1 28  1  0
  1 29  1  0
  1 30  1  0
  5 31  1  0
  6 32  1  0
  7 33  1  0
 13 34  1  0
 14 35  1  0
 14 36  1  0
 19 37  1  0
 20 38  1  0
 21 39  1  0
 26 40  1  0
 26 41  1  0
 26 42  1  0
 27 43  1  0
M  END
>  <Name>  (749) 
Gerberinol

>  <PubChem ID>  (749) 
54714260

>  <CDB ID>  (749) 
CDB0749

>  <Smiles>  (749) 
CC1=C2C(=CC=C1)OC(=O)C(=C2O)CC3=C(C4=C(C=CC=C4OC3=O)C)O

>  <Chemical class>  (749) 
Biscoumarins

>  <Natural source>  (749) 
Gerbera lanuginosa

>  <Molecular Formula>  (749) 
C21H16O6

>  <InChI-Key>  (749) 
JUCUEMBIORWHSB-UHFFFAOYSA-N

>  <Total Molweight>  (749) 
364.352

>  <cLogP>  (749) 
3.2758

>  <cLogS>  (749) 
-4.028

>  <H-Acceptors>  (749) 
6

>  <H-Donors>  (749) 
2

>  <Rotatable Bonds>  (749) 
2

>  <Polar Surface Area>  (749) 
93.06

$$$$
CDB0750
     RDKit          3D

 60 65  0  0  0  0  0  0  0  0999 V2000
   -4.6007   -2.5354   -1.4847 C   0  0  0  0  0  0  0  0  0  0  0  0
   -3.9504   -2.9225   -0.1817 C   0  0  0  0  0  0  0  0  0  0  0  0
   -2.9348   -2.1578    0.4385 C   0  0  0  0  0  0  0  0  0  0  0  0
   -2.4000   -2.6500    1.6344 C   0  0  0  0  0  0  0  0  0  0  0  0
   -2.8363   -3.8325    2.2337 C   0  0  0  0  0  0  0  0  0  0  0  0
   -3.8419   -4.5677    1.6264 C   0  0  0  0  0  0  0  0  0  0  0  0
   -4.3926   -4.1168    0.4286 C   0  0  0  0  0  0  0  0  0  0  0  0
   -1.3720   -1.9760    2.3175 O   0  0  0  0  0  0  0  0  0  0  0  0
   -0.8095   -0.8209    1.8190 C   0  0  0  0  0  0  0  0  0  0  0  0
    0.0989   -0.2441    2.4175 O   0  0  0  0  0  0  0  0  0  0  0  0
   -1.3262   -0.2893    0.5353 C   0  0  0  0  0  0  0  0  0  0  0  0
   -2.3766   -0.8873   -0.0583 C   0  0  0  0  0  0  0  0  0  0  0  0
   -3.0024   -0.3316   -1.1566 O   0  0  0  0  0  0  0  0  0  0  0  0
   -0.6771    0.9223    0.0059 C   0  0  0  0  0  0  0  0  0  0  0  0
    0.5811    0.9462   -0.4863 C   0  0  0  0  0  0  0  0  0  0  0  0
    1.1815    2.2169   -0.9950 C   0  0  0  0  0  0  0  0  0  0  0  0
    2.2746    2.2402   -1.5555 O   0  0  0  0  0  0  0  0  0  0  0  0
    0.4542    3.4771   -0.7940 C   0  0  0  0  0  0  0  0  0  0  0  0
   -0.8441    3.4521   -0.3024 C   0  0  0  0  0  0  0  0  0  0  0  0
   -1.4975    2.1692   -0.0057 C   0  0  0  0  0  0  0  0  0  0  0  0
   -2.7096    2.1205    0.1874 O   0  0  0  0  0  0  0  0  0  0  0  0
   -1.5550    4.6480   -0.1164 C   0  0  0  0  0  0  0  0  0  0  0  0
   -0.9572    5.8808   -0.4062 C   0  0  0  0  0  0  0  0  0  0  0  0
    0.3459    5.8992   -0.9152 C   0  0  0  0  0  0  0  0  0  0  0  0
    1.0443    4.7078   -1.1071 C   0  0  0  0  0  0  0  0  0  0  0  0
    2.3114    4.8259   -1.6118 O   0  0  0  0  0  0  0  0  0  0  0  0
   -1.7246    7.1591   -0.2371 C   0  0  0  0  0  0  0  0  0  0  0  0
    1.4291   -0.2402   -0.6394 C   0  0  0  0  0  0  0  0  0  0  0  0
    2.3451   -0.6146    0.2727 C   0  0  0  0  0  0  0  0  0  0  0  0
    3.2533   -1.7515    0.0347 C   0  0  0  0  0  0  0  0  0  0  0  0
    4.2446   -2.2284    0.9246 C   0  0  0  0  0  0  0  0  0  0  0  0
    5.0362   -3.3380    0.5544 C   0  0  0  0  0  0  0  0  0  0  0  0
    4.8622   -3.9789   -0.6704 C   0  0  0  0  0  0  0  0  0  0  0  0
    3.8924   -3.5203   -1.5476 C   0  0  0  0  0  0  0  0  0  0  0  0
    3.1092   -2.4232   -1.1854 C   0  0  0  0  0  0  0  0  0  0  0  0
    2.1509   -2.0332   -2.1396 O   0  0  0  0  0  0  0  0  0  0  0  0
    1.3067   -0.9612   -1.9304 C   0  0  0  0  0  0  0  0  0  0  0  0
    0.4713   -0.6309   -2.7675 O   0  0  0  0  0  0  0  0  0  0  0  0
    4.5182   -1.6099    2.2709 C   0  0  0  0  0  0  0  0  0  0  0  0
    2.5197    0.0771    1.4562 O   0  0  0  0  0  0  0  0  0  0  0  0
   -3.8499   -2.4301   -2.2741 H   0  0  0  0  0  0  0  0  0  0  0  0
   -5.1692   -1.6075   -1.3690 H   0  0  0  0  0  0  0  0  0  0  0  0
   -5.3063   -3.3017   -1.8250 H   0  0  0  0  0  0  0  0  0  0  0  0
   -2.3932   -4.1743    3.1648 H   0  0  0  0  0  0  0  0  0  0  0  0
   -4.1961   -5.4910    2.0771 H   0  0  0  0  0  0  0  0  0  0  0  0
   -5.1775   -4.7106   -0.0381 H   0  0  0  0  0  0  0  0  0  0  0  0
   -3.1814    0.6095   -0.9439 H   0  0  0  0  0  0  0  0  0  0  0  0
   -2.5790    4.6192    0.2557 H   0  0  0  0  0  0  0  0  0  0  0  0
    0.8262    6.8422   -1.1706 H   0  0  0  0  0  0  0  0  0  0  0  0
    2.6787    3.9238   -1.7546 H   0  0  0  0  0  0  0  0  0  0  0  0
   -2.4402    7.0782    0.5878 H   0  0  0  0  0  0  0  0  0  0  0  0
   -1.0516    7.9905   -0.0026 H   0  0  0  0  0  0  0  0  0  0  0  0
   -2.2692    7.3928   -1.1571 H   0  0  0  0  0  0  0  0  0  0  0  0
    5.8048   -3.7108    1.2301 H   0  0  0  0  0  0  0  0  0  0  0  0
    5.4837   -4.8300   -0.9356 H   0  0  0  0  0  0  0  0  0  0  0  0
    3.7449   -4.0077   -2.5072 H   0  0  0  0  0  0  0  0  0  0  0  0
    4.8523   -0.5740    2.1572 H   0  0  0  0  0  0  0  0  0  0  0  0
    5.3138   -2.1423    2.8042 H   0  0  0  0  0  0  0  0  0  0  0  0
    3.6275   -1.6593    2.9051 H   0  0  0  0  0  0  0  0  0  0  0  0
    1.6596    0.1030    1.9323 H   0  0  0  0  0  0  0  0  0  0  0  0
  1  2  1  0
  2  3  1  0
  3  4  2  0
  4  5  1  0
  5  6  2  0
  6  7  1  0
  4  8  1  0
  8  9  1  0
  9 10  2  0
  9 11  1  0
 11 12  2  0
 12 13  1  0
 11 14  1  0
 14 15  2  0
 15 16  1  0
 16 17  2  0
 16 18  1  0
 18 19  2  0
 19 20  1  0
 20 21  2  0
 19 22  1  0
 22 23  2  0
 23 24  1  0
 24 25  2  0
 25 26  1  0
 23 27  1  0
 15 28  1  0
 28 29  2  0
 29 30  1  0
 30 31  1  0
 31 32  2  0
 32 33  1  0
 33 34  2  0
 34 35  1  0
 35 36  1  0
 36 37  1  0
 37 38  2  0
 31 39  1  0
 29 40  1  0
  7  2  2  0
 12  3  1  0
 20 14  1  0
 25 18  1  0
 37 28  1  0
 35 30  2  0
  1 41  1  0
  1 42  1  0
  1 43  1  0
  5 44  1  0
  6 45  1  0
  7 46  1  0
 13 47  1  0
 22 48  1  0
 24 49  1  0
 26 50  1  0
 27 51  1  0
 27 52  1  0
 27 53  1  0
 32 54  1  0
 33 55  1  0
 34 56  1  0
 39 57  1  0
 39 58  1  0
 39 59  1  0
 40 60  1  0
M  END
>  <Name>  (750) 
Ismailin

>  <PubChem ID>  (750) 
135454728

>  <CDB ID>  (750) 
CDB0750

>  <Smiles>  (750) 
CC1=C2C(=CC=C1)OC(=O)C(=C2O)C3=C(C(=O)C4=C(C3=O)C=C(C=C4O)C)C5=C(C6=C(C=CC=C6OC5=O)C)O

>  <Chemical class>  (750) 
Biscoumarins

>  <Natural source>  (750) 
Diospyros ismaili

>  <Molecular Formula>  (750) 
C31H20O9

>  <InChI-Key>  (750) 
ANMHSKMVWXRFBM-UHFFFAOYSA-N

>  <Total Molweight>  (750) 
536.491

>  <cLogP>  (750) 
4.1622

>  <cLogS>  (750) 
-5.912

>  <H-Acceptors>  (750) 
9

>  <H-Donors>  (750) 
3

>  <Rotatable Bonds>  (750) 
2

>  <Polar Surface Area>  (750) 
147.43

$$$$
CDB0751
     RDKit          3D

 60 64  0  0  0  0  0  0  0  0999 V2000
    2.8060   -2.3172   -2.8709 C   0  0  0  0  0  0  0  0  0  0  0  0
    1.7447   -1.4214   -2.2815 C   0  0  0  0  0  0  0  0  0  0  0  0
    1.4081   -0.3944   -2.8836 O   0  0  0  0  0  0  0  0  0  0  0  0
    1.1032   -1.8850   -0.9339 C   0  0  0  0  0  0  0  0  0  0  0  0
    0.8860   -0.8195    0.2031 C   0  0  0  0  0  0  0  0  0  0  0  0
   -0.5740   -0.6627   -0.3585 C   0  0  0  0  0  0  0  0  0  0  0  0
   -0.4375   -2.0994   -0.9510 C   0  0  0  0  0  0  0  0  0  0  0  0
   -1.0662   -2.4511   -2.3148 C   0  0  0  0  0  0  0  0  0  0  0  0
   -0.6764   -3.4323   -2.9663 O   0  0  0  0  0  0  0  0  0  0  0  0
   -2.1708   -1.5862   -2.8629 C   0  0  0  0  0  0  0  0  0  0  0  0
   -1.8246   -0.3926    0.6290 C   0  0  0  0  0  0  0  0  0  0  0  0
   -2.0369   -1.0751    1.8532 C   0  0  0  0  0  0  0  0  0  0  0  0
   -3.1371   -0.7776    2.6750 C   0  0  0  0  0  0  0  0  0  0  0  0
   -4.0625    0.2000    2.3081 C   0  0  0  0  0  0  0  0  0  0  0  0
   -3.9075    0.8789    1.1075 C   0  0  0  0  0  0  0  0  0  0  0  0
   -2.8132    0.5667    0.2969 C   0  0  0  0  0  0  0  0  0  0  0  0
   -2.6660    1.2342   -0.9491 O   0  0  0  0  0  0  0  0  0  0  0  0
   -3.5408    2.2241   -1.3717 C   0  0  0  0  0  0  0  0  0  0  0  0
   -3.4202    2.7929   -2.4509 O   0  0  0  0  0  0  0  0  0  0  0  0
   -4.6636    2.5383   -0.4747 C   0  0  0  0  0  0  0  0  0  0  0  0
   -4.8478    1.9052    0.6871 C   0  0  0  0  0  0  0  0  0  0  0  0
   -1.1183   -2.0501    2.1510 O   0  0  0  0  0  0  0  0  0  0  0  0
   -1.1964   -2.6760    3.4252 C   0  0  0  0  0  0  0  0  0  0  0  0
    1.9185    0.4180    0.2830 C   0  0  0  0  0  0  0  0  0  0  0  0
    3.3210    0.1859    0.3008 C   0  0  0  0  0  0  0  0  0  0  0  0
    4.2436    1.2416    0.3259 C   0  0  0  0  0  0  0  0  0  0  0  0
    3.8048    2.5633    0.3635 C   0  0  0  0  0  0  0  0  0  0  0  0
    2.4429    2.8373    0.3987 C   0  0  0  0  0  0  0  0  0  0  0  0
    1.5318    1.7743    0.3704 C   0  0  0  0  0  0  0  0  0  0  0  0
    0.1472    2.0619    0.4698 O   0  0  0  0  0  0  0  0  0  0  0  0
   -0.3421    3.3548    0.5969 C   0  0  0  0  0  0  0  0  0  0  0  0
   -1.5329    3.6034    0.7509 O   0  0  0  0  0  0  0  0  0  0  0  0
    0.6461    4.4416    0.5510 C   0  0  0  0  0  0  0  0  0  0  0  0
    1.9571    4.2066    0.4623 C   0  0  0  0  0  0  0  0  0  0  0  0
    3.6827   -1.1417    0.2924 O   0  0  0  0  0  0  0  0  0  0  0  0
    5.0623   -1.4508    0.4501 C   0  0  0  0  0  0  0  0  0  0  0  0
    3.6289   -2.4329   -2.1629 H   0  0  0  0  0  0  0  0  0  0  0  0
    3.1954   -1.8733   -3.7913 H   0  0  0  0  0  0  0  0  0  0  0  0
    2.3697   -3.2915   -3.1040 H   0  0  0  0  0  0  0  0  0  0  0  0
    1.6223   -2.7767   -0.5537 H   0  0  0  0  0  0  0  0  0  0  0  0
    0.9091   -1.3165    1.1831 H   0  0  0  0  0  0  0  0  0  0  0  0
   -0.5699    0.0852   -1.1659 H   0  0  0  0  0  0  0  0  0  0  0  0
   -0.7229   -2.8791   -0.2287 H   0  0  0  0  0  0  0  0  0  0  0  0
   -2.5664   -2.0336   -3.7794 H   0  0  0  0  0  0  0  0  0  0  0  0
   -1.7830   -0.5932   -3.0992 H   0  0  0  0  0  0  0  0  0  0  0  0
   -2.9821   -1.5218   -2.1346 H   0  0  0  0  0  0  0  0  0  0  0  0
   -3.3057   -1.2968    3.6131 H   0  0  0  0  0  0  0  0  0  0  0  0
   -4.9000    0.4152    2.9668 H   0  0  0  0  0  0  0  0  0  0  0  0
   -5.3335    3.3177   -0.8146 H   0  0  0  0  0  0  0  0  0  0  0  0
   -5.6806    2.1578    1.3334 H   0  0  0  0  0  0  0  0  0  0  0  0
   -1.1143   -1.9424    4.2340 H   0  0  0  0  0  0  0  0  0  0  0  0
   -0.3480   -3.3616    3.5116 H   0  0  0  0  0  0  0  0  0  0  0  0
   -2.1124   -3.2686    3.5157 H   0  0  0  0  0  0  0  0  0  0  0  0
    5.3145    1.0674    0.3126 H   0  0  0  0  0  0  0  0  0  0  0  0
    4.5372    3.3666    0.3769 H   0  0  0  0  0  0  0  0  0  0  0  0
    0.2463    5.4467    0.6013 H   0  0  0  0  0  0  0  0  0  0  0  0
    2.6693    5.0238    0.4331 H   0  0  0  0  0  0  0  0  0  0  0  0
    5.6431   -1.0997   -0.4089 H   0  0  0  0  0  0  0  0  0  0  0  0
    5.1563   -2.5403    0.4903 H   0  0  0  0  0  0  0  0  0  0  0  0
    5.4553   -1.0481    1.3894 H   0  0  0  0  0  0  0  0  0  0  0  0
  1  2  1  0
  2  3  2  0
  2  4  1  0
  4  5  1  0
  5  6  1  0
  6  7  1  0
  7  8  1  0
  8  9  2  0
  8 10  1  0
  6 11  1  0
 11 12  2  0
 12 13  1  0
 13 14  2  0
 14 15  1  0
 15 16  2  0
 16 17  1  0
 17 18  1  0
 18 19  2  0
 18 20  1  0
 20 21  2  0
 12 22  1  0
 22 23  1  0
  5 24  1  0
 24 25  2  0
 25 26  1  0
 26 27  2  0
 27 28  1  0
 28 29  2  0
 29 30  1  0
 30 31  1  0
 31 32  2  0
 31 33  1  0
 33 34  2  0
 25 35  1  0
 35 36  1  0
  7  4  1  0
 16 11  1  0
 21 15  1  0
 29 24  1  0
 34 28  1  0
  1 37  1  0
  1 38  1  0
  1 39  1  0
  4 40  1  0
  5 41  1  0
  6 42  1  0
  7 43  1  0
 10 44  1  0
 10 45  1  0
 10 46  1  0
 13 47  1  0
 14 48  1  0
 20 49  1  0
 21 50  1  0
 23 51  1  0
 23 52  1  0
 23 53  1  0
 26 54  1  0
 27 55  1  0
 33 56  1  0
 34 57  1  0
 36 58  1  0
 36 59  1  0
 36 60  1  0
M  END
>  <Name>  (751) 
Bisosthenone B

>  <PubChem ID>  (751) 
14409176

>  <CDB ID>  (751) 
CDB0751

>  <Smiles>  (751) 
CC(=O)C1C(C(C1C(=O)C)C2=C(C=CC3=C2OC(=O)C=C3)OC)C4=C(C=CC5=C4OC(=O)C=C5)OC

>  <Chemical class>  (751) 
Biscoumarins

>  <Natural source>  (751) 
Citrus paradisi

>  <Molecular Formula>  (751) 
C28H24O8

>  <InChI-Key>  (751) 
WZTQDHIHDRTWFQ-UHFFFAOYSA-N

>  <Total Molweight>  (751) 
488.491

>  <cLogP>  (751) 
3.7338

>  <cLogS>  (751) 
-5.784

>  <H-Acceptors>  (751) 
8

>  <H-Donors>  (751) 
0

>  <Rotatable Bonds>  (751) 
6

>  <Polar Surface Area>  (751) 
105.2

$$$$
CDB0752
     RDKit          3D

 86 91  0  0  0  0  0  0  0  0999 V2000
    2.8923    2.3214    3.1279 C   0  0  0  0  0  0  0  0  0  0  0  0
    3.7723    1.8382    2.2385 C   0  0  0  0  0  0  0  0  0  0  0  0
    4.2232    0.3799    2.0547 C   0  0  0  0  0  0  0  0  0  0  0  0
    3.5116   -0.6290    2.9936 C   0  0  0  0  0  0  0  0  0  0  0  0
    5.6982    0.4113    2.5306 C   0  0  0  0  0  0  0  0  0  0  0  0
    3.9660   -0.0662    0.5849 C   0  0  0  0  0  0  0  0  0  0  0  0
    2.6593    0.0362    0.0372 C   0  0  0  0  0  0  0  0  0  0  0  0
    1.6162    0.5293    0.8625 O   0  0  0  0  0  0  0  0  0  0  0  0
    0.3018    0.7098    0.4528 C   0  0  0  0  0  0  0  0  0  0  0  0
   -0.5364    1.1663    1.2199 O   0  0  0  0  0  0  0  0  0  0  0  0
   -0.0138    0.3210   -0.9389 C   0  0  0  0  0  0  0  0  0  0  0  0
   -1.4442    0.4654   -1.4365 C   0  0  2  0  0  0  0  0  0  0  0  0
   -1.7362    1.9444   -1.7500 C   0  0  0  0  0  0  0  0  0  0  0  0
   -3.0539    2.4677   -1.1769 C   0  0  0  0  0  0  0  0  0  0  0  0
   -3.5004    3.6860   -2.0057 C   0  0  0  0  0  0  0  0  0  0  0  0
   -2.9415    2.9277    0.2867 C   0  0  0  0  0  0  0  0  0  0  0  0
   -4.0933    1.4958   -1.3328 O   0  0  0  0  0  0  0  0  0  0  0  0
   -3.8691    0.2790   -0.7320 C   0  0  0  0  0  0  0  0  0  0  0  0
   -2.5595   -0.2502   -0.6845 C   0  0  0  0  0  0  0  0  0  0  0  0
   -2.3823   -1.4944   -0.0627 C   0  0  0  0  0  0  0  0  0  0  0  0
   -1.1255   -2.0409   -0.0299 O   0  0  0  0  0  0  0  0  0  0  0  0
   -3.4559   -2.1914    0.5071 C   0  0  0  0  0  0  0  0  0  0  0  0
   -3.2948   -3.5101    1.1232 C   0  0  0  0  0  0  0  0  0  0  0  0
   -4.3320   -4.1353    1.6849 C   0  0  0  0  0  0  0  0  0  0  0  0
   -5.6718   -3.5421    1.7076 C   0  0  0  0  0  0  0  0  0  0  0  0
   -6.6074   -4.1086    2.2581 O   0  0  0  0  0  0  0  0  0  0  0  0
   -5.8047   -2.3248    1.0612 O   0  0  0  0  0  0  0  0  0  0  0  0
   -4.7401   -1.6298    0.4339 C   0  0  0  0  0  0  0  0  0  0  0  0
   -5.0078   -0.4066   -0.2158 C   0  0  0  0  0  0  0  0  0  0  0  0
   -6.4346    0.1953   -0.3838 C   0  0  0  0  0  0  0  0  0  0  0  0
   -6.5439    1.4587    0.5082 C   0  0  0  0  0  0  0  0  0  0  0  0
   -7.6353   -0.6938    0.0339 C   0  0  0  0  0  0  0  0  0  0  0  0
   -6.7088    0.5733   -1.8483 C   0  0  0  0  0  0  0  0  0  0  0  0
   -6.7575   -0.2830   -2.8807 C   0  0  0  0  0  0  0  0  0  0  0  0
    0.9607   -0.1567   -1.7317 C   0  0  0  0  0  0  0  0  0  0  0  0
    2.3370   -0.3187   -1.2728 C   0  0  0  0  0  0  0  0  0  0  0  0
    3.3481   -0.8155   -2.0968 C   0  0  0  0  0  0  0  0  0  0  0  0
    3.0230   -1.1135   -3.3985 O   0  0  0  0  0  0  0  0  0  0  0  0
    4.6504   -0.9938   -1.6050 C   0  0  0  0  0  0  0  0  0  0  0  0
    4.9526   -0.5994   -0.2793 C   0  0  0  0  0  0  0  0  0  0  0  0
    6.2141   -0.7852    0.2224 O   0  0  0  0  0  0  0  0  0  0  0  0
    7.3252   -0.9139   -0.6840 C   0  0  0  0  0  0  0  0  0  0  0  0
    7.9123    0.4791   -0.9377 C   0  0  0  0  0  0  0  0  0  0  0  0
    8.3558   -1.7779    0.0536 C   0  0  0  0  0  0  0  0  0  0  0  0
    6.9559   -1.5776   -1.9820 C   0  0  0  0  0  0  0  0  0  0  0  0
    5.6928   -1.6349   -2.4114 C   0  0  0  0  0  0  0  0  0  0  0  0
    2.3719    1.6888    3.8387 H   0  0  0  0  0  0  0  0  0  0  0  0
    2.6568    3.3812    3.1504 H   0  0  0  0  0  0  0  0  0  0  0  0
    4.2376    2.5530    1.5587 H   0  0  0  0  0  0  0  0  0  0  0  0
    3.8720   -1.6491    2.8114 H   0  0  0  0  0  0  0  0  0  0  0  0
    2.4251   -0.6467    2.8637 H   0  0  0  0  0  0  0  0  0  0  0  0
    3.7037   -0.4004    4.0490 H   0  0  0  0  0  0  0  0  0  0  0  0
    5.7772    0.8159    3.5489 H   0  0  0  0  0  0  0  0  0  0  0  0
    6.1377   -0.5918    2.5735 H   0  0  0  0  0  0  0  0  0  0  0  0
    6.3246    1.0454    1.8920 H   0  0  0  0  0  0  0  0  0  0  0  0
   -1.4755   -0.0401   -2.4165 H   0  0  0  0  0  0  0  0  0  0  0  0
   -0.9096    2.6065   -1.4594 H   0  0  0  0  0  0  0  0  0  0  0  0
   -1.7758    2.0201   -2.8473 H   0  0  0  0  0  0  0  0  0  0  0  0
   -3.6598    3.4099   -3.0547 H   0  0  0  0  0  0  0  0  0  0  0  0
   -2.7628    4.4944   -1.9665 H   0  0  0  0  0  0  0  0  0  0  0  0
   -4.4611    4.0730   -1.6459 H   0  0  0  0  0  0  0  0  0  0  0  0
   -2.8049    2.0938    0.9791 H   0  0  0  0  0  0  0  0  0  0  0  0
   -2.1140    3.6321    0.4220 H   0  0  0  0  0  0  0  0  0  0  0  0
   -3.8624    3.4267    0.6092 H   0  0  0  0  0  0  0  0  0  0  0  0
   -0.9703   -2.3533    0.8785 H   0  0  0  0  0  0  0  0  0  0  0  0
   -2.3281   -3.9996    1.0960 H   0  0  0  0  0  0  0  0  0  0  0  0
   -4.2376   -5.1137    2.1392 H   0  0  0  0  0  0  0  0  0  0  0  0
   -5.8778    2.2645    0.1898 H   0  0  0  0  0  0  0  0  0  0  0  0
   -7.5595    1.8738    0.4894 H   0  0  0  0  0  0  0  0  0  0  0  0
   -6.3013    1.2253    1.5520 H   0  0  0  0  0  0  0  0  0  0  0  0
   -8.5907   -0.2163   -0.2228 H   0  0  0  0  0  0  0  0  0  0  0  0
   -7.6268   -1.6690   -0.4667 H   0  0  0  0  0  0  0  0  0  0  0  0
   -7.6644   -0.8568    1.1174 H   0  0  0  0  0  0  0  0  0  0  0  0
   -6.8598    1.6311   -2.0579 H   0  0  0  0  0  0  0  0  0  0  0  0
   -6.5987   -1.3481   -2.7458 H   0  0  0  0  0  0  0  0  0  0  0  0
   -6.9462    0.0739   -3.8879 H   0  0  0  0  0  0  0  0  0  0  0  0
    0.7425   -0.4591   -2.7522 H   0  0  0  0  0  0  0  0  0  0  0  0
    3.8187   -1.0089   -3.9453 H   0  0  0  0  0  0  0  0  0  0  0  0
    7.1803    1.1361   -1.4221 H   0  0  0  0  0  0  0  0  0  0  0  0
    8.1834    0.9653    0.0066 H   0  0  0  0  0  0  0  0  0  0  0  0
    8.8044    0.4357   -1.5721 H   0  0  0  0  0  0  0  0  0  0  0  0
    8.6218   -1.3289    1.0180 H   0  0  0  0  0  0  0  0  0  0  0  0
    7.9458   -2.7699    0.2794 H   0  0  0  0  0  0  0  0  0  0  0  0
    9.2743   -1.9094   -0.5290 H   0  0  0  0  0  0  0  0  0  0  0  0
    7.7483   -2.0227   -2.5774 H   0  0  0  0  0  0  0  0  0  0  0  0
    5.4434   -2.1552   -3.3278 H   0  0  0  0  0  0  0  0  0  0  0  0
  1  2  2  0
  2  3  1  0
  3  4  1  0
  3  5  1  0
  3  6  1  0
  6  7  1  0
  7  8  1  0
  8  9  1  0
  9 10  2  0
  9 11  1  0
 11 12  1  0
 12 13  1  0
 13 14  1  0
 14 15  1  0
 14 16  1  0
 14 17  1  0
 17 18  1  0
 18 19  1  0
 19 20  2  0
 20 21  1  0
 20 22  1  0
 22 23  1  0
 23 24  2  0
 24 25  1  0
 25 26  2  0
 25 27  1  0
 27 28  1  0
 28 29  1  0
 29 30  1  0
 30 31  1  0
 30 32  1  0
 30 33  1  0
 33 34  2  0
 11 35  2  0
 35 36  1  0
 36 37  1  0
 37 38  1  0
 37 39  2  0
 39 40  1  0
 40 41  1  0
 41 42  1  0
 42 43  1  0
 42 44  1  0
 42 45  1  0
 45 46  2  0
 40  6  2  0
 36  7  2  0
 46 39  1  0
 19 12  1  0
 28 22  2  0
 29 18  2  0
  1 47  1  0
  1 48  1  0
  2 49  1  0
  4 50  1  0
  4 51  1  0
  4 52  1  0
  5 53  1  0
  5 54  1  0
  5 55  1  0
 12 56  1  6
 13 57  1  0
 13 58  1  0
 15 59  1  0
 15 60  1  0
 15 61  1  0
 16 62  1  0
 16 63  1  0
 16 64  1  0
 21 65  1  0
 23 66  1  0
 24 67  1  0
 31 68  1  0
 31 69  1  0
 31 70  1  0
 32 71  1  0
 32 72  1  0
 32 73  1  0
 33 74  1  0
 34 75  1  0
 34 76  1  0
 35 77  1  0
 38 78  1  0
 43 79  1  0
 43 80  1  0
 43 81  1  0
 44 82  1  0
 44 83  1  0
 44 84  1  0
 45 85  1  0
 46 86  1  0
M  END
>  <Name>  (752) 
Bisnorponcitrin

>  <PubChem ID>  (752) 
10416480

>  <CDB ID>  (752) 
CDB0752

>  <Smiles>  (752) 
C=CC(C)(C)C1=C2OC(=O)C([C@@H]3CC(C)(C)OC4=C3C(O)=C3C=CC(=O)OC3=C4C(C)(C)C=C)=CC2=C(O)C2=C1OC(C)(C)C=C2

>  <Chemical class>  (752) 
Biscoumarins

>  <Natural source>  (752) 
Citrus hassaku

>  <Molecular Formula>  (752) 
C38H40O8

>  <InChI-Key>  (752) 
FURJBUFALVRNOD-QHCPKHFHSA-N

>  <Total Molweight>  (752) 
624.728

>  <cLogP>  (752) 
8.3642

>  <cLogS>  (752) 
-8.777

>  <H-Acceptors>  (752) 
8

>  <H-Donors>  (752) 
2

>  <Rotatable Bonds>  (752) 
5

>  <Polar Surface Area>  (752) 
111.52

$$$$
CDB0753
     RDKit          3D

 73 78  0  0  0  0  0  0  0  0999 V2000
    5.4749    0.2925    0.0885 C   0  0  0  0  0  0  0  0  0  0  0  0
    4.8546    1.4715    0.2516 C   0  0  0  0  0  0  0  0  0  0  0  0
    3.4239    1.7963   -0.2031 C   0  0  0  0  0  0  0  0  0  0  0  0
    2.9932    3.1762    0.3642 C   0  0  0  0  0  0  0  0  0  0  0  0
    3.5438    2.0094   -1.7334 C   0  0  0  0  0  0  0  0  0  0  0  0
    2.4005    0.7390    0.3057 C   0  0  0  0  0  0  0  0  0  0  0  0
    2.3679    0.3964    1.6844 C   0  0  0  0  0  0  0  0  0  0  0  0
    3.2694    1.0618    2.5631 O   0  0  0  0  0  0  0  0  0  0  0  0
    3.3670    0.7906    3.9167 C   0  0  0  0  0  0  0  0  0  0  0  0
    4.1290    1.3929    4.6629 O   0  0  0  0  0  0  0  0  0  0  0  0
    2.4959   -0.2758    4.4240 C   0  0  0  0  0  0  0  0  0  0  0  0
    1.6211   -0.9091    3.6387 C   0  0  0  0  0  0  0  0  0  0  0  0
    1.5004   -0.5584    2.2252 C   0  0  0  0  0  0  0  0  0  0  0  0
    0.5711   -1.1557    1.3738 C   0  0  0  0  0  0  0  0  0  0  0  0
   -0.3082   -2.0899    1.8588 O   0  0  0  0  0  0  0  0  0  0  0  0
    0.5071   -0.8262    0.0099 C   0  0  0  0  0  0  0  0  0  0  0  0
    1.4613    0.0737   -0.5194 C   0  0  0  0  0  0  0  0  0  0  0  0
    1.4960    0.3468   -1.8595 O   0  0  0  0  0  0  0  0  0  0  0  0
    0.9115   -0.6063   -2.7561 C   0  0  0  0  0  0  0  0  0  0  0  0
    0.8790    0.0836   -4.1292 C   0  0  0  0  0  0  0  0  0  0  0  0
    1.7974   -1.8565   -2.8713 C   0  0  0  0  0  0  0  0  0  0  0  0
   -0.5178   -0.9029   -2.3189 C   0  0  0  0  0  0  0  0  0  0  0  0
   -0.5599   -1.4486   -0.8869 C   0  0  2  0  0  0  0  0  0  0  0  0
   -2.0037   -1.3437   -0.3749 C   0  0  0  0  0  0  0  0  0  0  0  0
   -2.8324   -2.4817   -0.3523 C   0  0  0  0  0  0  0  0  0  0  0  0
   -2.2926   -3.6953   -0.8496 O   0  0  0  0  0  0  0  0  0  0  0  0
   -3.0049   -4.8827   -0.8628 C   0  0  0  0  0  0  0  0  0  0  0  0
   -2.5502   -5.9235   -1.3207 O   0  0  0  0  0  0  0  0  0  0  0  0
   -4.3557   -4.8359   -0.2873 C   0  0  0  0  0  0  0  0  0  0  0  0
   -4.8973   -3.7046    0.1732 C   0  0  0  0  0  0  0  0  0  0  0  0
   -4.1492   -2.4501    0.1198 C   0  0  0  0  0  0  0  0  0  0  0  0
   -4.6670   -1.2205    0.5483 C   0  0  0  0  0  0  0  0  0  0  0  0
   -5.9677   -1.1139    0.9807 O   0  0  0  0  0  0  0  0  0  0  0  0
   -3.8773   -0.0569    0.5398 C   0  0  0  0  0  0  0  0  0  0  0  0
   -2.5553   -0.1249    0.0739 C   0  0  0  0  0  0  0  0  0  0  0  0
   -1.7512    0.9798   -0.0119 O   0  0  0  0  0  0  0  0  0  0  0  0
   -2.1473    2.2139    0.6109 C   0  0  0  0  0  0  0  0  0  0  0  0
   -1.2570    2.4061    1.8439 C   0  0  0  0  0  0  0  0  0  0  0  0
   -1.8495    3.3133   -0.4152 C   0  0  0  0  0  0  0  0  0  0  0  0
   -3.5970    2.2845    1.0152 C   0  0  0  0  0  0  0  0  0  0  0  0
   -4.4130    1.2282    0.9801 C   0  0  0  0  0  0  0  0  0  0  0  0
    6.4907    0.1468    0.4421 H   0  0  0  0  0  0  0  0  0  0  0  0
    4.9852   -0.5466   -0.3962 H   0  0  0  0  0  0  0  0  0  0  0  0
    5.4055    2.2730    0.7419 H   0  0  0  0  0  0  0  0  0  0  0  0
    1.9718    3.4256    0.0509 H   0  0  0  0  0  0  0  0  0  0  0  0
    3.6517    3.9779    0.0071 H   0  0  0  0  0  0  0  0  0  0  0  0
    3.0152    3.2192    1.4575 H   0  0  0  0  0  0  0  0  0  0  0  0
    2.6219    2.4184   -2.1627 H   0  0  0  0  0  0  0  0  0  0  0  0
    4.3349    2.7328   -1.9729 H   0  0  0  0  0  0  0  0  0  0  0  0
    3.7976    1.0828   -2.2618 H   0  0  0  0  0  0  0  0  0  0  0  0
    2.6124   -0.5241    5.4716 H   0  0  0  0  0  0  0  0  0  0  0  0
    1.0169   -1.7138    4.0418 H   0  0  0  0  0  0  0  0  0  0  0  0
   -0.7075   -1.7149    2.6624 H   0  0  0  0  0  0  0  0  0  0  0  0
    0.4328   -0.5595   -4.8949 H   0  0  0  0  0  0  0  0  0  0  0  0
    0.3083    1.0187   -4.0847 H   0  0  0  0  0  0  0  0  0  0  0  0
    1.8900    0.3586   -4.4520 H   0  0  0  0  0  0  0  0  0  0  0  0
    1.9219   -2.3729   -1.9146 H   0  0  0  0  0  0  0  0  0  0  0  0
    2.8078   -1.5826   -3.1971 H   0  0  0  0  0  0  0  0  0  0  0  0
    1.3838   -2.5712   -3.5904 H   0  0  0  0  0  0  0  0  0  0  0  0
   -1.0058   -1.6073   -3.0053 H   0  0  0  0  0  0  0  0  0  0  0  0
   -1.0944    0.0307   -2.3785 H   0  0  0  0  0  0  0  0  0  0  0  0
   -0.2731   -2.5073   -0.9395 H   0  0  0  0  0  0  0  0  0  0  0  0
   -4.8838   -5.7811   -0.2502 H   0  0  0  0  0  0  0  0  0  0  0  0
   -5.8837   -3.7258    0.6212 H   0  0  0  0  0  0  0  0  0  0  0  0
   -6.5167   -1.7081    0.4434 H   0  0  0  0  0  0  0  0  0  0  0  0
   -0.1972    2.3904    1.5660 H   0  0  0  0  0  0  0  0  0  0  0  0
   -1.3996    1.5899    2.5623 H   0  0  0  0  0  0  0  0  0  0  0  0
   -1.4626    3.3534    2.3542 H   0  0  0  0  0  0  0  0  0  0  0  0
   -2.0562    4.3133   -0.0184 H   0  0  0  0  0  0  0  0  0  0  0  0
   -0.7997    3.2783   -0.7308 H   0  0  0  0  0  0  0  0  0  0  0  0
   -2.4479    3.1721   -1.3235 H   0  0  0  0  0  0  0  0  0  0  0  0
   -3.9805    3.2398    1.3637 H   0  0  0  0  0  0  0  0  0  0  0  0
   -5.4506    1.2998    1.2865 H   0  0  0  0  0  0  0  0  0  0  0  0
  1  2  2  0
  2  3  1  0
  3  4  1  0
  3  5  1  0
  3  6  1  0
  6  7  1  0
  7  8  1  0
  8  9  1  0
  9 10  2  0
  9 11  1  0
 11 12  2  0
 12 13  1  0
 13 14  1  0
 14 15  1  0
 14 16  2  0
 16 17  1  0
 17 18  1  0
 18 19  1  0
 19 20  1  0
 19 21  1  0
 19 22  1  0
 22 23  1  0
 23 24  1  0
 24 25  2  0
 25 26  1  0
 26 27  1  0
 27 28  2  0
 27 29  1  0
 29 30  2  0
 30 31  1  0
 31 32  2  0
 32 33  1  0
 32 34  1  0
 34 35  2  0
 35 36  1  0
 36 37  1  0
 37 38  1  0
 37 39  1  0
 37 40  1  0
 40 41  2  0
 17  6  2  0
 35 24  1  0
 13  7  2  0
 23 16  1  0
 31 25  1  0
 41 34  1  0
  1 42  1  0
  1 43  1  0
  2 44  1  0
  4 45  1  0
  4 46  1  0
  4 47  1  0
  5 48  1  0
  5 49  1  0
  5 50  1  0
 11 51  1  0
 12 52  1  0
 15 53  1  0
 20 54  1  0
 20 55  1  0
 20 56  1  0
 21 57  1  0
 21 58  1  0
 21 59  1  0
 22 60  1  0
 22 61  1  0
 23 62  1  6
 29 63  1  0
 30 64  1  0
 33 65  1  0
 38 66  1  0
 38 67  1  0
 38 68  1  0
 39 69  1  0
 39 70  1  0
 39 71  1  0
 40 72  1  0
 41 73  1  0
M  END
>  <Name>  (753) 
Nordenletin

>  <PubChem ID>  (753) 
101610963

>  <CDB ID>  (753) 
CDB0753

>  <Smiles>  (753) 
C=CC(C)(C)C1=C2OC(=O)C=CC2=C(O)C2=C1OC(C)(C)C[C@@H]2C1=C2OC(=O)C=CC2=C(O)C2=C1OC(C)(C)C=C2

>  <Chemical class>  (753) 
Biscoumarins

>  <Natural source>  (753) 
Citrus hassaku

>  <Molecular Formula>  (753) 
C33H32O8

>  <InChI-Key>  (753) 
FHJQQVOVOMBWAA-IBGZPJMESA-N

>  <Total Molweight>  (753) 
556.609

>  <cLogP>  (753) 
5.6556

>  <cLogS>  (753) 
-7.433

>  <H-Acceptors>  (753) 
8

>  <H-Donors>  (753) 
2

>  <Rotatable Bonds>  (753) 
3

>  <Polar Surface Area>  (753) 
111.52

$$$$
CDB0754
     RDKit          3D

 97102  0  0  0  0  0  0  0  0999 V2000
   -2.7389    2.2214   -0.3413 C   0  0  0  0  0  0  0  0  0  0  0  0
   -2.7489    0.8753   -1.0919 C   0  0  0  0  0  0  0  0  0  0  0  0
   -2.0155   -0.2143   -0.3021 C   0  0  0  0  0  0  0  0  0  0  0  0
   -2.7103   -0.9711    0.5636 C   0  0  0  0  0  0  0  0  0  0  0  0
   -4.1562   -0.7734    0.6995 C   0  0  0  0  0  0  0  0  0  0  0  0
   -4.8399   -0.0624   -0.3064 C   0  0  0  0  0  0  0  0  0  0  0  0
   -4.1313    0.5086   -1.3370 O   0  0  0  0  0  0  0  0  0  0  0  0
   -6.2585    0.0542   -0.3357 C   0  0  0  0  0  0  0  0  0  0  0  0
   -6.9424   -0.5700    0.7324 C   0  0  0  0  0  0  0  0  0  0  0  0
   -6.2838   -1.2496    1.7713 C   0  0  0  0  0  0  0  0  0  0  0  0
   -4.8887   -1.3332    1.7520 C   0  0  0  0  0  0  0  0  0  0  0  0
   -4.2668   -1.9729    2.7971 O   0  0  0  0  0  0  0  0  0  0  0  0
   -7.0721   -1.8525    2.8453 C   0  0  0  0  0  0  0  0  0  0  0  0
   -8.4043   -1.7739    2.8442 C   0  0  0  0  0  0  0  0  0  0  0  0
   -9.1344   -1.0855    1.7758 C   0  0  0  0  0  0  0  0  0  0  0  0
  -10.3571   -1.0190    1.7821 O   0  0  0  0  0  0  0  0  0  0  0  0
   -8.3586   -0.5223    0.7740 O   0  0  0  0  0  0  0  0  0  0  0  0
   -6.9541    0.8101   -1.5074 C   0  0  0  0  0  0  0  0  0  0  0  0
   -8.4880    1.0034   -1.3970 C   0  0  0  0  0  0  0  0  0  0  0  0
   -6.7429   -0.0142   -2.8055 C   0  0  0  0  0  0  0  0  0  0  0  0
   -6.4294    2.2524   -1.5854 C   0  0  0  0  0  0  0  0  0  0  0  0
   -5.9220    2.8841   -2.6543 C   0  0  0  0  0  0  0  0  0  0  0  0
   -0.5664   -0.3928   -0.4193 C   0  0  0  0  0  0  0  0  0  0  0  0
    0.2566    0.4927    0.1654 C   0  0  0  0  0  0  0  0  0  0  0  0
    1.7065    0.2953    0.0943 C   0  0  0  0  0  0  0  0  0  0  0  0
    2.2289   -0.6416   -0.8193 C   0  0  0  0  0  0  0  0  0  0  0  0
    3.6200   -0.8217   -0.9838 C   0  0  0  0  0  0  0  0  0  0  0  0
    4.4449   -0.0547   -0.1158 C   0  0  0  0  0  0  0  0  0  0  0  0
    3.9595    0.8619    0.8177 C   0  0  0  0  0  0  0  0  0  0  0  0
    2.5780    1.0558    0.8870 C   0  0  0  0  0  0  0  0  0  0  0  0
    2.0334    1.9921    1.7327 O   0  0  0  0  0  0  0  0  0  0  0  0
    4.9121    1.5372    1.6989 C   0  0  0  0  0  0  0  0  0  0  0  0
    6.2467    1.3798    1.6097 C   0  0  0  0  0  0  0  0  0  0  0  0
    6.7859    0.4650    0.5575 C   0  0  0  0  0  0  0  0  0  0  0  0
    7.9828    0.2933    0.3626 O   0  0  0  0  0  0  0  0  0  0  0  0
    5.8485   -0.2212   -0.2031 O   0  0  0  0  0  0  0  0  0  0  0  0
    7.2700    2.0678    2.5415 C   0  0  0  0  0  0  0  0  0  0  0  0
    8.2384    2.9405    1.7050 C   0  0  0  0  0  0  0  0  0  0  0  0
    6.6106    3.0330    3.5628 C   0  0  0  0  0  0  0  0  0  0  0  0
    8.0715    1.0775    3.3881 C   0  0  0  0  0  0  0  0  0  0  0  0
    7.7256   -0.1714    3.7356 C   0  0  0  0  0  0  0  0  0  0  0  0
    4.2690   -1.8010   -2.0052 C   0  0  0  0  0  0  0  0  0  0  0  0
    4.9070   -2.9702   -1.2101 C   0  0  0  0  0  0  0  0  0  0  0  0
    3.3185   -2.4748   -3.0279 C   0  0  0  0  0  0  0  0  0  0  0  0
    5.2548   -1.0347   -2.9009 C   0  0  0  0  0  0  0  0  0  0  0  0
    6.5595   -1.2823   -3.0880 C   0  0  0  0  0  0  0  0  0  0  0  0
    1.3725   -1.3607   -1.6076 O   0  0  0  0  0  0  0  0  0  0  0  0
    0.0316   -1.6188   -1.1169 C   0  0  0  0  0  0  0  0  0  0  0  0
    0.1197   -2.8318   -0.1705 C   0  0  0  0  0  0  0  0  0  0  0  0
   -0.7363   -2.0451   -2.3780 C   0  0  0  0  0  0  0  0  0  0  0  0
   -2.1839    1.1074   -2.5025 C   0  0  0  0  0  0  0  0  0  0  0  0
   -1.7359    2.6559   -0.2907 H   0  0  0  0  0  0  0  0  0  0  0  0
   -3.3930    2.9485   -0.8353 H   0  0  0  0  0  0  0  0  0  0  0  0
   -3.1159    2.1170    0.6825 H   0  0  0  0  0  0  0  0  0  0  0  0
   -2.2326   -1.7405    1.1575 H   0  0  0  0  0  0  0  0  0  0  0  0
   -3.3818   -1.5872    2.9097 H   0  0  0  0  0  0  0  0  0  0  0  0
   -6.5521   -2.3721    3.6439 H   0  0  0  0  0  0  0  0  0  0  0  0
   -9.0064   -2.2160    3.6278 H   0  0  0  0  0  0  0  0  0  0  0  0
   -8.7733    1.5371   -0.4824 H   0  0  0  0  0  0  0  0  0  0  0  0
   -9.0243    0.0482   -1.4332 H   0  0  0  0  0  0  0  0  0  0  0  0
   -8.8741    1.5965   -2.2373 H   0  0  0  0  0  0  0  0  0  0  0  0
   -7.1175   -1.0378   -2.6805 H   0  0  0  0  0  0  0  0  0  0  0  0
   -7.2808    0.4260   -3.6541 H   0  0  0  0  0  0  0  0  0  0  0  0
   -5.6924   -0.0915   -3.1022 H   0  0  0  0  0  0  0  0  0  0  0  0
   -6.4954    2.8170   -0.6548 H   0  0  0  0  0  0  0  0  0  0  0  0
   -5.8183    2.4026   -3.6203 H   0  0  0  0  0  0  0  0  0  0  0  0
   -5.5885    3.9144   -2.5774 H   0  0  0  0  0  0  0  0  0  0  0  0
   -0.1114    1.3450    0.7257 H   0  0  0  0  0  0  0  0  0  0  0  0
    2.6195    2.7671    1.7434 H   0  0  0  0  0  0  0  0  0  0  0  0
    4.4858    2.1542    2.4801 H   0  0  0  0  0  0  0  0  0  0  0  0
    8.8587    3.5768    2.3489 H   0  0  0  0  0  0  0  0  0  0  0  0
    8.9347    2.3488    1.1031 H   0  0  0  0  0  0  0  0  0  0  0  0
    7.6872    3.6034    1.0273 H   0  0  0  0  0  0  0  0  0  0  0  0
    6.0524    3.8311    3.0585 H   0  0  0  0  0  0  0  0  0  0  0  0
    5.9232    2.5077    4.2373 H   0  0  0  0  0  0  0  0  0  0  0  0
    7.3622    3.5213    4.1965 H   0  0  0  0  0  0  0  0  0  0  0  0
    9.0243    1.4491    3.7676 H   0  0  0  0  0  0  0  0  0  0  0  0
    6.7925   -0.6316    3.4293 H   0  0  0  0  0  0  0  0  0  0  0  0
    8.3903   -0.7737    4.3486 H   0  0  0  0  0  0  0  0  0  0  0  0
    5.7099   -2.6489   -0.5395 H   0  0  0  0  0  0  0  0  0  0  0  0
    4.1547   -3.4735   -0.5899 H   0  0  0  0  0  0  0  0  0  0  0  0
    5.3339   -3.7261   -1.8805 H   0  0  0  0  0  0  0  0  0  0  0  0
    3.8807   -3.0834   -3.7493 H   0  0  0  0  0  0  0  0  0  0  0  0
    2.6140   -3.1601   -2.5431 H   0  0  0  0  0  0  0  0  0  0  0  0
    2.7514   -1.7402   -3.6124 H   0  0  0  0  0  0  0  0  0  0  0  0
    4.8231   -0.1952   -3.4474 H   0  0  0  0  0  0  0  0  0  0  0  0
    7.0805   -2.0882   -2.5825 H   0  0  0  0  0  0  0  0  0  0  0  0
    7.1499   -0.6571   -3.7513 H   0  0  0  0  0  0  0  0  0  0  0  0
   -0.8663   -3.2436    0.0648 H   0  0  0  0  0  0  0  0  0  0  0  0
    0.7197   -3.6320   -0.6203 H   0  0  0  0  0  0  0  0  0  0  0  0
    0.6143   -2.5716    0.7725 H   0  0  0  0  0  0  0  0  0  0  0  0
   -0.2839   -2.9419   -2.8197 H   0  0  0  0  0  0  0  0  0  0  0  0
   -0.6722   -1.2751   -3.1537 H   0  0  0  0  0  0  0  0  0  0  0  0
   -1.7890   -2.2680   -2.1784 H   0  0  0  0  0  0  0  0  0  0  0  0
   -2.3289    0.2242   -3.1328 H   0  0  0  0  0  0  0  0  0  0  0  0
   -2.7275    1.9163   -3.0066 H   0  0  0  0  0  0  0  0  0  0  0  0
   -1.1229    1.3752   -2.4962 H   0  0  0  0  0  0  0  0  0  0  0  0
  1  2  1  0
  2  3  1  0
  3  4  2  0
  4  5  1  0
  5  6  2  0
  6  7  1  0
  6  8  1  0
  8  9  2  0
  9 10  1  0
 10 11  2  0
 11 12  1  0
 10 13  1  0
 13 14  2  0
 14 15  1  0
 15 16  2  0
 15 17  1  0
  8 18  1  0
 18 19  1  0
 18 20  1  0
 18 21  1  0
 21 22  2  0
  3 23  1  0
 23 24  2  0
 24 25  1  0
 25 26  1  0
 26 27  2  0
 27 28  1  0
 28 29  2  0
 29 30  1  0
 30 31  1  0
 29 32  1  0
 32 33  2  0
 33 34  1  0
 34 35  2  0
 34 36  1  0
 33 37  1  0
 37 38  1  0
 37 39  1  0
 37 40  1  0
 40 41  2  0
 27 42  1  0
 42 43  1  0
 42 44  1  0
 42 45  1  0
 45 46  2  0
 26 47  1  0
 47 48  1  0
 48 49  1  0
 48 50  1  0
  2 51  1  0
  7  2  1  0
 11  5  1  0
 17  9  1  0
 48 23  1  0
 30 25  2  0
 36 28  1  0
  1 52  1  0
  1 53  1  0
  1 54  1  0
  4 55  1  0
 12 56  1  0
 13 57  1  0
 14 58  1  0
 19 59  1  0
 19 60  1  0
 19 61  1  0
 20 62  1  0
 20 63  1  0
 20 64  1  0
 21 65  1  0
 22 66  1  0
 22 67  1  0
 24 68  1  0
 31 69  1  0
 32 70  1  0
 38 71  1  0
 38 72  1  0
 38 73  1  0
 39 74  1  0
 39 75  1  0
 39 76  1  0
 40 77  1  0
 41 78  1  0
 41 79  1  0
 43 80  1  0
 43 81  1  0
 43 82  1  0
 44 83  1  0
 44 84  1  0
 44 85  1  0
 45 86  1  0
 46 87  1  0
 46 88  1  0
 49 89  1  0
 49 90  1  0
 49 91  1  0
 50 92  1  0
 50 93  1  0
 50 94  1  0
 51 95  1  0
 51 96  1  0
 51 97  1  0
M  END
>  <Name>  (754) 
Yukomarin

>  <PubChem ID>  (754) 
15372935

>  <CDB ID>  (754) 
CDB0754

>  <Smiles>  (754) 
CC1(C(=CC2=C(O1)C(=C3C(=C2O)C=CC(=O)O3)C(C)(C)C=C)C4=CC5=C(C(=C6C(=C5O)C=C(C(=O)O6)C(C)(C)C=C)C(C)(C)C=C)OC4(C)C)C

>  <Chemical class>  (754) 
Biscoumarins

>  <Natural source>  (754) 
Citrus yuko

>  <Molecular Formula>  (754) 
C43H46O8

>  <InChI-Key>  (754) 
DEFSZYOYXZUSJE-UHFFFAOYSA-N

>  <Total Molweight>  (754) 
690.83

>  <cLogP>  (754) 
9.9092

>  <cLogS>  (754) 
-9.608

>  <H-Acceptors>  (754) 
8

>  <H-Donors>  (754) 
2

>  <Rotatable Bonds>  (754) 
7

>  <Polar Surface Area>  (754) 
111.52

$$$$
CDB0755
     RDKit          3D

 56 61  0  0  0  0  0  0  0  0999 V2000
   -1.8674    2.0498   -3.1302 C   0  0  0  0  0  0  0  0  0  0  0  0
   -1.7725    1.4386   -1.7254 C   0  0  0  0  0  0  0  0  0  0  0  0
   -1.7036   -0.0691   -1.8481 C   0  0  0  0  0  0  0  0  0  0  0  0
   -2.4483   -0.8959   -1.1077 C   0  0  0  0  0  0  0  0  0  0  0  0
   -3.3706   -0.3095   -0.1447 C   0  0  0  0  0  0  0  0  0  0  0  0
   -3.5770    1.0719   -0.1589 C   0  0  0  0  0  0  0  0  0  0  0  0
   -2.9514    1.9201   -1.0307 O   0  0  0  0  0  0  0  0  0  0  0  0
   -4.4885    1.6642    0.7195 C   0  0  0  0  0  0  0  0  0  0  0  0
   -5.1926    0.8834    1.6392 C   0  0  0  0  0  0  0  0  0  0  0  0
   -4.9920   -0.4972    1.6765 C   0  0  0  0  0  0  0  0  0  0  0  0
   -4.0871   -1.0778    0.7834 C   0  0  0  0  0  0  0  0  0  0  0  0
   -3.8760   -2.4772    0.8069 O   0  0  0  0  0  0  0  0  0  0  0  0
   -4.5379   -3.3054    1.7005 C   0  0  0  0  0  0  0  0  0  0  0  0
   -4.3537   -4.5164    1.7350 O   0  0  0  0  0  0  0  0  0  0  0  0
   -5.4866   -2.6615    2.6234 C   0  0  0  0  0  0  0  0  0  0  0  0
   -5.7062   -1.3437    2.6192 C   0  0  0  0  0  0  0  0  0  0  0  0
   -0.5546    1.9991   -0.9469 C   0  0  0  0  0  0  0  0  0  0  0  0
    0.8170    1.7857   -1.6100 C   0  0  0  0  0  0  0  0  0  0  0  0
    2.0245    2.1364   -0.7032 C   0  0  0  0  0  0  0  0  0  0  0  0
    3.3037    1.8949   -1.4796 C   0  0  0  0  0  0  0  0  0  0  0  0
    4.1001    0.8440   -1.2595 C   0  0  0  0  0  0  0  0  0  0  0  0
    3.7051   -0.1089   -0.2298 C   0  0  0  0  0  0  0  0  0  0  0  0
    2.6266    0.2008    0.6026 C   0  0  0  0  0  0  0  0  0  0  0  0
    1.9151    1.3651    0.5131 O   0  0  0  0  0  0  0  0  0  0  0  0
    2.2376   -0.6744    1.6201 C   0  0  0  0  0  0  0  0  0  0  0  0
    2.9130   -1.8823    1.8085 C   0  0  0  0  0  0  0  0  0  0  0  0
    3.9891   -2.2132    0.9836 C   0  0  0  0  0  0  0  0  0  0  0  0
    4.3749   -1.3225   -0.0223 C   0  0  0  0  0  0  0  0  0  0  0  0
    5.4675   -1.6423   -0.8633 O   0  0  0  0  0  0  0  0  0  0  0  0
    6.1794   -2.8244   -0.7259 C   0  0  0  0  0  0  0  0  0  0  0  0
    7.1266   -3.1089   -1.4493 O   0  0  0  0  0  0  0  0  0  0  0  0
    5.7449   -3.7399    0.3415 C   0  0  0  0  0  0  0  0  0  0  0  0
    4.7177   -3.4610    1.1490 C   0  0  0  0  0  0  0  0  0  0  0  0
    1.9957    3.6071   -0.2649 C   0  0  0  0  0  0  0  0  0  0  0  0
   -1.8782    3.1448   -3.0779 H   0  0  0  0  0  0  0  0  0  0  0  0
   -1.0402    1.7435   -3.7789 H   0  0  0  0  0  0  0  0  0  0  0  0
   -2.8051    1.7568   -3.6185 H   0  0  0  0  0  0  0  0  0  0  0  0
   -0.9984   -0.4934   -2.5577 H   0  0  0  0  0  0  0  0  0  0  0  0
   -2.3723   -1.9735   -1.1998 H   0  0  0  0  0  0  0  0  0  0  0  0
   -4.6468    2.7393    0.6862 H   0  0  0  0  0  0  0  0  0  0  0  0
   -5.8935    1.3656    2.3161 H   0  0  0  0  0  0  0  0  0  0  0  0
   -5.9988   -3.3241    3.3102 H   0  0  0  0  0  0  0  0  0  0  0  0
   -6.4105   -0.8914    3.3089 H   0  0  0  0  0  0  0  0  0  0  0  0
   -0.7123    3.0739   -0.7868 H   0  0  0  0  0  0  0  0  0  0  0  0
   -0.5552    1.5592    0.0593 H   0  0  0  0  0  0  0  0  0  0  0  0
    0.9046    0.7320   -1.9016 H   0  0  0  0  0  0  0  0  0  0  0  0
    0.8682    2.3766   -2.5332 H   0  0  0  0  0  0  0  0  0  0  0  0
    3.5622    2.6002   -2.2651 H   0  0  0  0  0  0  0  0  0  0  0  0
    5.0042    0.6778   -1.8343 H   0  0  0  0  0  0  0  0  0  0  0  0
    1.4017   -0.4131    2.2645 H   0  0  0  0  0  0  0  0  0  0  0  0
    2.5895   -2.5516    2.6020 H   0  0  0  0  0  0  0  0  0  0  0  0
    6.3111   -4.6586    0.4337 H   0  0  0  0  0  0  0  0  0  0  0  0
    4.4152   -4.1514    1.9289 H   0  0  0  0  0  0  0  0  0  0  0  0
    1.9474    4.2882   -1.1216 H   0  0  0  0  0  0  0  0  0  0  0  0
    1.1444    3.8135    0.3931 H   0  0  0  0  0  0  0  0  0  0  0  0
    2.8903    3.8559    0.3195 H   0  0  0  0  0  0  0  0  0  0  0  0
  1  2  1  0
  2  3  1  0
  3  4  2  0
  4  5  1  0
  5  6  2  0
  6  7  1  0
  6  8  1  0
  8  9  2  0
  9 10  1  0
 10 11  2  0
 11 12  1  0
 12 13  1  0
 13 14  2  0
 13 15  1  0
 15 16  2  0
  2 17  1  0
 17 18  1  0
 18 19  1  0
 19 20  1  0
 20 21  2  0
 21 22  1  0
 22 23  2  0
 23 24  1  0
 23 25  1  0
 25 26  2  0
 26 27  1  0
 27 28  2  0
 28 29  1  0
 29 30  1  0
 30 31  2  0
 30 32  1  0
 32 33  2  0
 19 34  1  0
  7  2  1  0
 11  5  1  0
 16 10  1  0
 24 19  1  0
 28 22  1  0
 33 27  1  0
  1 35  1  0
  1 36  1  0
  1 37  1  0
  3 38  1  0
  4 39  1  0
  8 40  1  0
  9 41  1  0
 15 42  1  0
 16 43  1  0
 17 44  1  0
 17 45  1  0
 18 46  1  0
 18 47  1  0
 20 48  1  0
 21 49  1  0
 25 50  1  0
 26 51  1  0
 32 52  1  0
 33 53  1  0
 34 54  1  0
 34 55  1  0
 34 56  1  0
M  END
>  <Name>  (755) 
Biseselin

>  <PubChem ID>  (755) 
15372934

>  <CDB ID>  (755) 
CDB0755

>  <Smiles>  (755) 
CC1(C=CC2=C(O1)C=CC3=C2OC(=O)C=C3)CCC4(C=CC5=C(O4)C=CC6=C5OC(=O)C=C6)C

>  <Chemical class>  (755) 
Biscoumarins

>  <Natural source>  (755) 
Citrus yuko

>  <Molecular Formula>  (755) 
C28H22O6

>  <InChI-Key>  (755) 
JYTSMNNMPDDZLB-UHFFFAOYSA-N

>  <Total Molweight>  (755) 
454.477

>  <cLogP>  (755) 
4.9798

>  <cLogS>  (755) 
-6.814

>  <H-Acceptors>  (755) 
6

>  <H-Donors>  (755) 
0

>  <Rotatable Bonds>  (755) 
3

>  <Polar Surface Area>  (755) 
71.06

$$$$
CDB0756
     RDKit          3D

 64 68  0  0  0  0  0  0  0  0999 V2000
   -4.1818   -4.3767    1.3507 C   0  0  0  0  0  0  0  0  0  0  0  0
   -2.9791   -3.4854    1.2362 C   0  0  0  0  0  0  0  0  0  0  0  0
   -3.0747   -2.1477    1.3415 C   0  0  0  0  0  0  0  0  0  0  0  0
   -1.8988   -1.1932    1.2605 C   0  0  0  0  0  0  0  0  0  0  0  0
   -0.4912   -1.9100    1.3717 C   0  0  0  0  0  0  0  0  0  0  0  0
   -0.5138   -3.2512    0.5934 C   0  0  0  0  0  0  0  0  0  0  0  0
   -1.6663   -4.1824    0.9883 C   0  0  0  0  0  0  0  0  0  0  0  0
   -0.2146   -2.2269    2.8685 C   0  0  0  0  0  0  0  0  0  0  0  0
    0.6339   -1.0514    0.7771 C   0  0  0  0  0  0  0  0  0  0  0  0
    1.5188   -0.2843    1.4363 C   0  0  0  0  0  0  0  0  0  0  0  0
    2.4937    0.5772    0.7442 C   0  0  0  0  0  0  0  0  0  0  0  0
    2.6108    1.9453    1.0818 C   0  0  0  0  0  0  0  0  0  0  0  0
    3.5554    2.7358    0.4218 C   0  0  0  0  0  0  0  0  0  0  0  0
    4.3706    2.1605   -0.5527 C   0  0  0  0  0  0  0  0  0  0  0  0
    4.2772    0.8152   -0.8924 C   0  0  0  0  0  0  0  0  0  0  0  0
    3.3367    0.0219   -0.2366 C   0  0  0  0  0  0  0  0  0  0  0  0
    5.1620    0.2815   -1.9147 C   0  0  0  0  0  0  0  0  0  0  0  0
    6.0458    1.0903   -2.5071 C   0  0  0  0  0  0  0  0  0  0  0  0
    6.1652    2.5182   -2.1637 C   0  0  0  0  0  0  0  0  0  0  0  0
    6.9903    3.2301   -2.7242 O   0  0  0  0  0  0  0  0  0  0  0  0
    5.3072    3.0032   -1.1858 O   0  0  0  0  0  0  0  0  0  0  0  0
    1.7546    2.4091    2.0511 O   0  0  0  0  0  0  0  0  0  0  0  0
    1.8689    3.7754    2.4271 C   0  0  0  0  0  0  0  0  0  0  0  0
   -2.0417   -0.1699    0.1192 C   0  0  0  0  0  0  0  0  0  0  0  0
   -2.3475   -0.5072   -1.2187 C   0  0  0  0  0  0  0  0  0  0  0  0
   -2.4149    0.4991   -2.1893 C   0  0  0  0  0  0  0  0  0  0  0  0
   -2.1720    1.8240   -1.8329 C   0  0  0  0  0  0  0  0  0  0  0  0
   -1.8610    2.1855   -0.5302 C   0  0  0  0  0  0  0  0  0  0  0  0
   -1.8012    1.1889    0.4416 C   0  0  0  0  0  0  0  0  0  0  0  0
   -1.5938    3.5808   -0.2257 C   0  0  0  0  0  0  0  0  0  0  0  0
   -1.6603    4.4897   -1.2031 C   0  0  0  0  0  0  0  0  0  0  0  0
   -1.9987    4.1320   -2.5920 C   0  0  0  0  0  0  0  0  0  0  0  0
   -2.0569    4.9931   -3.4623 O   0  0  0  0  0  0  0  0  0  0  0  0
   -2.2434    2.7912   -2.8557 O   0  0  0  0  0  0  0  0  0  0  0  0
   -2.5347   -1.8331   -1.4957 O   0  0  0  0  0  0  0  0  0  0  0  0
   -3.0553   -2.1820   -2.7709 C   0  0  0  0  0  0  0  0  0  0  0  0
   -4.0502   -5.0864    2.1738 H   0  0  0  0  0  0  0  0  0  0  0  0
   -4.3261   -4.9407    0.4235 H   0  0  0  0  0  0  0  0  0  0  0  0
   -5.0989   -3.8099    1.5424 H   0  0  0  0  0  0  0  0  0  0  0  0
   -4.0473   -1.6868    1.5008 H   0  0  0  0  0  0  0  0  0  0  0  0
   -2.0019   -0.5992    2.1827 H   0  0  0  0  0  0  0  0  0  0  0  0
   -0.5795   -3.0591   -0.4849 H   0  0  0  0  0  0  0  0  0  0  0  0
    0.4342   -3.7891    0.7321 H   0  0  0  0  0  0  0  0  0  0  0  0
   -1.3921   -4.7408    1.8918 H   0  0  0  0  0  0  0  0  0  0  0  0
   -1.7908   -4.9250    0.1903 H   0  0  0  0  0  0  0  0  0  0  0  0
   -0.9794   -2.8777    3.3043 H   0  0  0  0  0  0  0  0  0  0  0  0
   -0.2021   -1.3162    3.4785 H   0  0  0  0  0  0  0  0  0  0  0  0
    0.7516   -2.7295    2.9955 H   0  0  0  0  0  0  0  0  0  0  0  0
    0.6538   -1.0324   -0.3142 H   0  0  0  0  0  0  0  0  0  0  0  0
    1.5182   -0.2004    2.5186 H   0  0  0  0  0  0  0  0  0  0  0  0
    3.6822    3.7905    0.6371 H   0  0  0  0  0  0  0  0  0  0  0  0
    3.2548   -1.0356   -0.4785 H   0  0  0  0  0  0  0  0  0  0  0  0
    5.0912   -0.7668   -2.1831 H   0  0  0  0  0  0  0  0  0  0  0  0
    6.7225    0.7329   -3.2737 H   0  0  0  0  0  0  0  0  0  0  0  0
    2.8595    3.9907    2.8409 H   0  0  0  0  0  0  0  0  0  0  0  0
    1.6365    4.4363    1.5855 H   0  0  0  0  0  0  0  0  0  0  0  0
    1.1316    3.9677    3.2125 H   0  0  0  0  0  0  0  0  0  0  0  0
   -2.6362    0.2841   -3.2285 H   0  0  0  0  0  0  0  0  0  0  0  0
   -1.5358    1.4571    1.4633 H   0  0  0  0  0  0  0  0  0  0  0  0
   -1.3393    3.8610    0.7902 H   0  0  0  0  0  0  0  0  0  0  0  0
   -1.4672    5.5397   -1.0215 H   0  0  0  0  0  0  0  0  0  0  0  0
   -4.0069   -1.6763   -2.9657 H   0  0  0  0  0  0  0  0  0  0  0  0
   -2.3263   -1.9750   -3.5608 H   0  0  0  0  0  0  0  0  0  0  0  0
   -3.2457   -3.2596   -2.7694 H   0  0  0  0  0  0  0  0  0  0  0  0
  1  2  1  0
  2  3  2  0
  3  4  1  0
  4  5  1  0
  5  6  1  0
  6  7  1  0
  5  8  1  0
  5  9  1  0
  9 10  2  3
 10 11  1  0
 11 12  2  0
 12 13  1  0
 13 14  2  0
 14 15  1  0
 15 16  2  0
 15 17  1  0
 17 18  2  0
 18 19  1  0
 19 20  2  0
 19 21  1  0
 12 22  1  0
 22 23  1  0
  4 24  1  0
 24 25  2  0
 25 26  1  0
 26 27  2  0
 27 28  1  0
 28 29  2  0
 28 30  1  0
 30 31  2  0
 31 32  1  0
 32 33  2  0
 32 34  1  0
 25 35  1  0
 35 36  1  0
  7  2  1  0
 16 11  1  0
 21 14  1  0
 29 24  1  0
 34 27  1  0
  1 37  1  0
  1 38  1  0
  1 39  1  0
  3 40  1  0
  4 41  1  0
  6 42  1  0
  6 43  1  0
  7 44  1  0
  7 45  1  0
  8 46  1  0
  8 47  1  0
  8 48  1  0
  9 49  1  0
 10 50  1  0
 13 51  1  0
 16 52  1  0
 17 53  1  0
 18 54  1  0
 23 55  1  0
 23 56  1  0
 23 57  1  0
 26 58  1  0
 29 59  1  0
 30 60  1  0
 31 61  1  0
 36 62  1  0
 36 63  1  0
 36 64  1  0
M  END
>  <Name>  (756) 
Thamnosin

>  <PubChem ID>  (756) 
5377043

>  <CDB ID>  (756) 
CDB0756

>  <Smiles>  (756) 
CC1=CC(C(CC1)(C)C=CC2=C(C=C3C(=C2)C=CC(=O)O3)OC)C4=C(C=C5C(=C4)C=CC(=O)O5)OC

>  <Chemical class>  (756) 
Biscoumarins

>  <Natural source>  (756) 
Thamnosma montana, Zanthoxylum suberosum

>  <Molecular Formula>  (756) 
C30H28O6

>  <InChI-Key>  (756) 
SWGAQLQAABDHGT-UHFFFAOYSA-N

>  <Total Molweight>  (756) 
484.546

>  <cLogP>  (756) 
5.8706

>  <cLogS>  (756) 
-6.7

>  <H-Acceptors>  (756) 
6

>  <H-Donors>  (756) 
0

>  <Rotatable Bonds>  (756) 
5

>  <Polar Surface Area>  (756) 
71.06

$$$$
CDB0757
     RDKit          3D

 75 79  0  0  0  0  0  0  0  0999 V2000
   -2.8357   -4.4986   -1.5936 C   0  0  0  0  0  0  0  0  0  0  0  0
   -1.8847   -3.6992   -0.7499 C   0  0  0  0  0  0  0  0  0  0  0  0
   -2.2649   -2.5645   -0.1340 C   0  0  0  0  0  0  0  0  0  0  0  0
   -1.3427   -1.6722    0.6795 C   0  0  0  0  0  0  0  0  0  0  0  0
    0.1826   -2.0751    0.5181 C   0  0  0  0  0  0  0  0  0  0  0  0
    0.3107   -3.6553    0.5598 C   0  0  0  0  0  0  0  0  0  0  0  0
   -0.4872   -4.2574   -0.6214 C   0  0  0  0  0  0  0  0  0  0  0  0
    1.7679   -4.1686    0.5128 C   0  0  0  0  0  0  0  0  0  0  0  0
   -0.2520   -4.2033    1.9061 C   0  0  0  0  0  0  0  0  0  0  0  0
    0.8343   -1.3580   -0.7288 C   0  0  0  0  0  0  0  0  0  0  0  0
    1.3791    0.0487   -0.5002 C   0  0  0  0  0  0  0  0  0  0  0  0
    2.2279    0.3865    0.5651 C   0  0  0  0  0  0  0  0  0  0  0  0
    2.6426    1.7079    0.7941 C   0  0  0  0  0  0  0  0  0  0  0  0
    2.2824    2.7299   -0.0827 C   0  0  0  0  0  0  0  0  0  0  0  0
    1.5188    2.4107   -1.2158 C   0  0  0  0  0  0  0  0  0  0  0  0
    1.0975    1.0850   -1.4104 C   0  0  0  0  0  0  0  0  0  0  0  0
    0.3728    0.7513   -2.5841 O   0  0  0  0  0  0  0  0  0  0  0  0
    0.0440    1.6857   -3.5541 C   0  0  0  0  0  0  0  0  0  0  0  0
   -0.5693    1.3914   -4.5724 O   0  0  0  0  0  0  0  0  0  0  0  0
    0.4557    3.0702   -3.2987 C   0  0  0  0  0  0  0  0  0  0  0  0
    1.1426    3.4154   -2.2079 C   0  0  0  0  0  0  0  0  0  0  0  0
    2.6343    4.0466    0.0735 O   0  0  0  0  0  0  0  0  0  0  0  0
    3.4522    4.3817    1.1878 C   0  0  0  0  0  0  0  0  0  0  0  0
    2.6542   -0.5572    1.4647 O   0  0  0  0  0  0  0  0  0  0  0  0
    3.9770   -0.9923    1.1432 C   0  0  0  0  0  0  0  0  0  0  0  0
    1.9329   -2.0726   -1.2914 O   0  0  0  0  0  0  0  0  0  0  0  0
   -1.6294   -0.1632    0.5899 C   0  0  0  0  0  0  0  0  0  0  0  0
   -1.2685    0.6662    1.6766 C   0  0  0  0  0  0  0  0  0  0  0  0
   -1.4765    2.0526    1.6197 C   0  0  0  0  0  0  0  0  0  0  0  0
   -2.0388    2.6513    0.4870 C   0  0  0  0  0  0  0  0  0  0  0  0
   -2.4405    1.8492   -0.5896 C   0  0  0  0  0  0  0  0  0  0  0  0
   -2.2153    0.4669   -0.5286 C   0  0  0  0  0  0  0  0  0  0  0  0
   -2.5701   -0.3285   -1.6483 O   0  0  0  0  0  0  0  0  0  0  0  0
   -3.2492    0.1583   -2.7543 C   0  0  0  0  0  0  0  0  0  0  0  0
   -3.6643   -0.5671   -3.6493 O   0  0  0  0  0  0  0  0  0  0  0  0
   -3.4567    1.6114   -2.7887 C   0  0  0  0  0  0  0  0  0  0  0  0
   -3.0747    2.4053   -1.7848 C   0  0  0  0  0  0  0  0  0  0  0  0
   -2.2559    4.0019    0.3667 O   0  0  0  0  0  0  0  0  0  0  0  0
   -1.4625    4.8530    1.1861 C   0  0  0  0  0  0  0  0  0  0  0  0
   -0.7328    0.0266    2.7668 O   0  0  0  0  0  0  0  0  0  0  0  0
   -0.0804    0.8168    3.7511 C   0  0  0  0  0  0  0  0  0  0  0  0
   -2.9687   -5.5001   -1.1720 H   0  0  0  0  0  0  0  0  0  0  0  0
   -2.4453   -4.5975   -2.6117 H   0  0  0  0  0  0  0  0  0  0  0  0
   -3.8230   -4.0297   -1.6601 H   0  0  0  0  0  0  0  0  0  0  0  0
   -3.3060   -2.2531   -0.2027 H   0  0  0  0  0  0  0  0  0  0  0  0
   -1.6313   -1.9275    1.7096 H   0  0  0  0  0  0  0  0  0  0  0  0
    0.6839   -1.7243    1.4238 H   0  0  0  0  0  0  0  0  0  0  0  0
   -0.5445   -5.3464   -0.4927 H   0  0  0  0  0  0  0  0  0  0  0  0
    0.0369   -4.0826   -1.5693 H   0  0  0  0  0  0  0  0  0  0  0  0
    1.8301   -5.2146    0.8376 H   0  0  0  0  0  0  0  0  0  0  0  0
    2.1957   -4.1616   -0.4919 H   0  0  0  0  0  0  0  0  0  0  0  0
    2.4120   -3.5840    1.1767 H   0  0  0  0  0  0  0  0  0  0  0  0
   -0.1002   -5.2868    1.9845 H   0  0  0  0  0  0  0  0  0  0  0  0
   -1.3258   -4.0433    2.0305 H   0  0  0  0  0  0  0  0  0  0  0  0
    0.2573   -3.7362    2.7568 H   0  0  0  0  0  0  0  0  0  0  0  0
    0.0707   -1.3468   -1.5136 H   0  0  0  0  0  0  0  0  0  0  0  0
    3.2496    1.8976    1.6730 H   0  0  0  0  0  0  0  0  0  0  0  0
    0.1711    3.7970   -4.0492 H   0  0  0  0  0  0  0  0  0  0  0  0
    1.4355    4.4473   -2.0456 H   0  0  0  0  0  0  0  0  0  0  0  0
    2.9375    4.1717    2.1312 H   0  0  0  0  0  0  0  0  0  0  0  0
    4.4178    3.8678    1.1382 H   0  0  0  0  0  0  0  0  0  0  0  0
    3.6459    5.4579    1.1476 H   0  0  0  0  0  0  0  0  0  0  0  0
    4.2099   -1.8521    1.7783 H   0  0  0  0  0  0  0  0  0  0  0  0
    4.7072   -0.2057    1.3607 H   0  0  0  0  0  0  0  0  0  0  0  0
    4.0628   -1.3076    0.0982 H   0  0  0  0  0  0  0  0  0  0  0  0
    2.0519   -1.7256   -2.1927 H   0  0  0  0  0  0  0  0  0  0  0  0
   -1.2193    2.6673    2.4725 H   0  0  0  0  0  0  0  0  0  0  0  0
   -3.9333    1.9993   -3.6801 H   0  0  0  0  0  0  0  0  0  0  0  0
   -3.2407    3.4761   -1.8380 H   0  0  0  0  0  0  0  0  0  0  0  0
   -0.3995    4.5952    1.1269 H   0  0  0  0  0  0  0  0  0  0  0  0
   -1.8168    4.8341    2.2215 H   0  0  0  0  0  0  0  0  0  0  0  0
   -1.5778    5.8756    0.8143 H   0  0  0  0  0  0  0  0  0  0  0  0
   -0.8079    1.3968    4.3276 H   0  0  0  0  0  0  0  0  0  0  0  0
    0.6804    1.4672    3.3077 H   0  0  0  0  0  0  0  0  0  0  0  0
    0.4262    0.1369    4.4427 H   0  0  0  0  0  0  0  0  0  0  0  0
  1  2  1  0
  2  3  2  0
  3  4  1  0
  4  5  1  0
  5  6  1  0
  6  7  1  0
  6  8  1  0
  6  9  1  0
  5 10  1  0
 10 11  1  0
 11 12  2  0
 12 13  1  0
 13 14  2  0
 14 15  1  0
 15 16  2  0
 16 17  1  0
 17 18  1  0
 18 19  2  0
 18 20  1  0
 20 21  2  0
 14 22  1  0
 22 23  1  0
 12 24  1  0
 24 25  1  0
 10 26  1  0
  4 27  1  0
 27 28  2  0
 28 29  1  0
 29 30  2  0
 30 31  1  0
 31 32  2  0
 32 33  1  0
 33 34  1  0
 34 35  2  0
 34 36  1  0
 36 37  2  0
 30 38  1  0
 38 39  1  0
 28 40  1  0
 40 41  1  0
  7  2  1  0
 16 11  1  0
 21 15  1  0
 32 27  1  0
 37 31  1  0
  1 42  1  0
  1 43  1  0
  1 44  1  0
  3 45  1  0
  4 46  1  0
  5 47  1  0
  7 48  1  0
  7 49  1  0
  8 50  1  0
  8 51  1  0
  8 52  1  0
  9 53  1  0
  9 54  1  0
  9 55  1  0
 10 56  1  0
 13 57  1  0
 20 58  1  0
 21 59  1  0
 23 60  1  0
 23 61  1  0
 23 62  1  0
 25 63  1  0
 25 64  1  0
 25 65  1  0
 26 66  1  0
 29 67  1  0
 36 68  1  0
 37 69  1  0
 39 70  1  0
 39 71  1  0
 39 72  1  0
 41 73  1  0
 41 74  1  0
 41 75  1  0
M  END
>  <Name>  (757) 
Toddalosin

>  <PubChem ID>  (757) 
15071281

>  <CDB ID>  (757) 
CDB0757

>  <Smiles>  (757) 
CC1=CC(C(C(C1)(C)C)C(C2=C(C=C(C3=C2OC(=O)C=C3)OC)OC)O)C4=C(C=C(C5=C4OC(=O)C=C5)OC)OC

>  <Chemical class>  (757) 
Biscoumarins

>  <Natural source>  (757) 
Toddalia asiatica

>  <Molecular Formula>  (757) 
C32H34O9

>  <InChI-Key>  (757) 
VCSIERORKAMAIV-UHFFFAOYSA-N

>  <Total Molweight>  (757) 
562.613

>  <cLogP>  (757) 
4.5987

>  <cLogS>  (757) 
-5.943

>  <H-Acceptors>  (757) 
9

>  <H-Donors>  (757) 
1

>  <Rotatable Bonds>  (757) 
7

>  <Polar Surface Area>  (757) 
109.75

$$$$
CDB0758
     RDKit          3D

 59 64  0  0  0  0  0  0  0  0999 V2000
    4.2916    2.9148    0.1848 C   0  0  0  0  0  0  0  0  0  0  0  0
    4.3106    1.3961    0.3938 C   0  0  0  0  0  0  0  0  0  0  0  0
    4.8232    0.7227   -0.8570 C   0  0  0  0  0  0  0  0  0  0  0  0
    4.0771   -0.0897   -1.6105 C   0  0  0  0  0  0  0  0  0  0  0  0
    2.6989   -0.3329   -1.2048 C   0  0  0  0  0  0  0  0  0  0  0  0
    2.2293    0.2354   -0.0264 C   0  0  0  0  0  0  0  0  0  0  0  0
    2.9803    1.0174    0.8041 O   0  0  0  0  0  0  0  0  0  0  0  0
    0.9145    0.0106    0.3872 C   0  0  0  0  0  0  0  0  0  0  0  0
    0.0174   -0.7800   -0.3686 C   0  0  0  0  0  0  0  0  0  0  0  0
    0.4897   -1.3753   -1.5587 C   0  0  0  0  0  0  0  0  0  0  0  0
    1.8191   -1.1322   -1.9516 C   0  0  0  0  0  0  0  0  0  0  0  0
    2.3299   -1.7051   -3.1461 O   0  0  0  0  0  0  0  0  0  0  0  0
    1.5698   -2.5102   -3.9738 C   0  0  0  0  0  0  0  0  0  0  0  0
    2.0117   -3.0073   -5.0022 O   0  0  0  0  0  0  0  0  0  0  0  0
    0.1915   -2.7627   -3.5412 C   0  0  0  0  0  0  0  0  0  0  0  0
   -0.3146   -2.2439   -2.4188 C   0  0  0  0  0  0  0  0  0  0  0  0
   -1.4179   -0.9568    0.1597 C   0  0  0  0  0  0  0  0  0  0  0  0
   -1.3908   -1.9698    1.3312 C   0  0  0  0  0  0  0  0  0  0  0  0
   -2.6548   -1.8494    2.2102 C   0  0  0  0  0  0  0  0  0  0  0  0
   -2.7879   -0.5097    2.7224 O   0  0  0  0  0  0  0  0  0  0  0  0
   -2.6974    0.4929    1.7982 C   0  0  0  0  0  0  0  0  0  0  0  0
   -2.0961    0.3461    0.5462 C   0  0  0  0  0  0  0  0  0  0  0  0
   -2.1793    1.4340   -0.3418 C   0  0  0  0  0  0  0  0  0  0  0  0
   -2.7551    2.6539    0.0214 C   0  0  0  0  0  0  0  0  0  0  0  0
   -3.2870    2.7940    1.3014 C   0  0  0  0  0  0  0  0  0  0  0  0
   -3.2632    1.7121    2.1831 C   0  0  0  0  0  0  0  0  0  0  0  0
   -2.7828    3.7451   -0.9398 C   0  0  0  0  0  0  0  0  0  0  0  0
   -2.2785    3.5640   -2.1638 C   0  0  0  0  0  0  0  0  0  0  0  0
   -1.6925    2.2838   -2.5921 C   0  0  0  0  0  0  0  0  0  0  0  0
   -1.2572    2.1384   -3.7279 O   0  0  0  0  0  0  0  0  0  0  0  0
   -1.6716    1.2648   -1.6516 O   0  0  0  0  0  0  0  0  0  0  0  0
   -3.9504   -2.2721    1.4931 C   0  0  0  0  0  0  0  0  0  0  0  0
   -2.4986   -2.7462    3.4519 C   0  0  0  0  0  0  0  0  0  0  0  0
   -1.2588   -3.3067    0.8258 O   0  0  0  0  0  0  0  0  0  0  0  0
    5.2323    1.0476    1.5685 C   0  0  0  0  0  0  0  0  0  0  0  0
    3.9316    3.4281    1.0841 H   0  0  0  0  0  0  0  0  0  0  0  0
    5.2841    3.3076   -0.0620 H   0  0  0  0  0  0  0  0  0  0  0  0
    3.6025    3.1897   -0.6228 H   0  0  0  0  0  0  0  0  0  0  0  0
    5.8486    0.9258   -1.1553 H   0  0  0  0  0  0  0  0  0  0  0  0
    4.4692   -0.5532   -2.5090 H   0  0  0  0  0  0  0  0  0  0  0  0
    0.5881    0.4756    1.3172 H   0  0  0  0  0  0  0  0  0  0  0  0
   -0.3951   -3.4027   -4.1891 H   0  0  0  0  0  0  0  0  0  0  0  0
   -1.3380   -2.4818   -2.1581 H   0  0  0  0  0  0  0  0  0  0  0  0
   -2.0524   -1.3728   -0.6286 H   0  0  0  0  0  0  0  0  0  0  0  0
   -0.5203   -1.7770    1.9734 H   0  0  0  0  0  0  0  0  0  0  0  0
   -3.7390    3.7295    1.6213 H   0  0  0  0  0  0  0  0  0  0  0  0
   -3.7051    1.8116    3.1722 H   0  0  0  0  0  0  0  0  0  0  0  0
   -3.2127    4.6969   -0.6474 H   0  0  0  0  0  0  0  0  0  0  0  0
   -2.2807    4.3529   -2.9060 H   0  0  0  0  0  0  0  0  0  0  0  0
   -4.8157   -2.1362    2.1526 H   0  0  0  0  0  0  0  0  0  0  0  0
   -4.1501   -1.6641    0.6053 H   0  0  0  0  0  0  0  0  0  0  0  0
   -3.9171   -3.3215    1.1825 H   0  0  0  0  0  0  0  0  0  0  0  0
   -1.6112   -2.4609    4.0289 H   0  0  0  0  0  0  0  0  0  0  0  0
   -3.3534   -2.6272    4.1281 H   0  0  0  0  0  0  0  0  0  0  0  0
   -2.4142   -3.8051    3.1871 H   0  0  0  0  0  0  0  0  0  0  0  0
   -0.3517   -3.3935    0.4798 H   0  0  0  0  0  0  0  0  0  0  0  0
    5.2265   -0.0319    1.7621 H   0  0  0  0  0  0  0  0  0  0  0  0
    6.2668    1.3587    1.3860 H   0  0  0  0  0  0  0  0  0  0  0  0
    4.8867    1.5274    2.4918 H   0  0  0  0  0  0  0  0  0  0  0  0
  1  2  1  0
  2  3  1  0
  3  4  2  0
  4  5  1  0
  5  6  1  0
  6  7  1  0
  6  8  2  0
  8  9  1  0
  9 10  2  0
 10 11  1  0
 11 12  1  0
 12 13  1  0
 13 14  2  0
 13 15  1  0
 15 16  2  0
  9 17  1  0
 17 18  1  0
 18 19  1  0
 19 20  1  0
 20 21  1  0
 21 22  2  0
 22 23  1  0
 23 24  2  0
 24 25  1  0
 25 26  2  0
 24 27  1  0
 27 28  2  0
 28 29  1  0
 29 30  2  0
 29 31  1  0
 19 32  1  0
 19 33  1  0
 18 34  1  0
  2 35  1  0
  7  2  1  0
 11  5  2  0
 16 10  1  0
 22 17  1  0
 26 21  1  0
 31 23  1  0
  1 36  1  0
  1 37  1  0
  1 38  1  0
  3 39  1  0
  4 40  1  0
  8 41  1  0
 15 42  1  0
 16 43  1  0
 17 44  1  0
 18 45  1  0
 25 46  1  0
 26 47  1  0
 27 48  1  0
 28 49  1  0
 32 50  1  0
 32 51  1  0
 32 52  1  0
 33 53  1  0
 33 54  1  0
 33 55  1  0
 34 56  1  0
 35 57  1  0
 35 58  1  0
 35 59  1  0
M  END
>  <Name>  (758) 
Khelmarin-D

>  <PubChem ID>  (758) 
101696939

>  <CDB ID>  (758) 
CDB0758

>  <Smiles>  (758) 
CC1(C=CC2=C(O1)C=C(C3=C2OC(=O)C=C3)C4C(C(OC5=C4C6=C(C=C5)C=CC(=O)O6)(C)C)O)C

>  <Chemical class>  (758) 
Biscoumarins

>  <Natural source>  (758) 
Citrus paradisi

>  <Molecular Formula>  (758) 
C28H24O7

>  <InChI-Key>  (758) 
XTSWFMOZIXMCPS-UHFFFAOYSA-N

>  <Total Molweight>  (758) 
472.492

>  <cLogP>  (758) 
3.6441

>  <cLogS>  (758) 
-6.257

>  <H-Acceptors>  (758) 
7

>  <H-Donors>  (758) 
1

>  <Rotatable Bonds>  (758) 
1

>  <Polar Surface Area>  (758) 
91.29

$$$$
CDB0759
     RDKit          3D

 86 91  0  0  0  0  0  0  0  0999 V2000
   -0.4045   -5.1149   -1.0956 C   0  0  0  0  0  0  0  0  0  0  0  0
   -0.4855   -4.7152    0.3822 C   0  0  0  0  0  0  0  0  0  0  0  0
    0.8192   -4.1236    0.8376 C   0  0  0  0  0  0  0  0  0  0  0  0
    0.9843   -2.8060    0.9727 C   0  0  0  0  0  0  0  0  0  0  0  0
   -0.1295   -1.9163    0.6365 C   0  0  0  0  0  0  0  0  0  0  0  0
    0.0654   -0.5229    0.5401 C   0  0  0  0  0  0  0  0  0  0  0  0
   -1.0490    0.3226    0.4660 C   0  0  0  0  0  0  0  0  0  0  0  0
   -2.3085   -0.2599    0.2932 C   0  0  0  0  0  0  0  0  0  0  0  0
   -2.5439   -1.6595    0.2387 C   0  0  0  0  0  0  0  0  0  0  0  0
   -1.4150   -2.4739    0.4577 C   0  0  0  0  0  0  0  0  0  0  0  0
   -1.6053   -3.8268    0.5529 O   0  0  0  0  0  0  0  0  0  0  0  0
   -3.9815   -2.1991   -0.0052 C   0  0  0  0  0  0  0  0  0  0  0  0
   -4.8193   -1.9177    1.2690 C   0  0  0  0  0  0  0  0  0  0  0  0
   -4.1358   -3.7170   -0.2779 C   0  0  0  0  0  0  0  0  0  0  0  0
   -4.6404   -1.5241   -1.2184 C   0  0  0  0  0  0  0  0  0  0  0  0
   -4.1263   -1.4726   -2.4573 C   0  0  0  0  0  0  0  0  0  0  0  0
   -3.4265    0.6033    0.1633 O   0  0  0  0  0  0  0  0  0  0  0  0
   -3.3775    1.9890    0.1944 C   0  0  0  0  0  0  0  0  0  0  0  0
   -4.4028    2.6436    0.0535 O   0  0  0  0  0  0  0  0  0  0  0  0
   -2.0458    2.6006    0.4545 C   0  0  0  0  0  0  0  0  0  0  0  0
   -0.9964    1.7748    0.6306 C   0  0  0  0  0  0  0  0  0  0  0  0
   -1.9572    4.1390    0.5802 C   0  0  0  0  0  0  0  0  0  0  0  0
   -2.7089    4.8767   -0.5559 C   0  0  0  0  0  0  0  0  0  0  0  0
   -2.5746    4.5583    1.9314 C   0  0  0  0  0  0  0  0  0  0  0  0
   -0.5032    4.6270    0.4256 C   0  0  0  0  0  0  0  0  0  0  0  0
    0.2648    5.2486    1.3319 C   0  0  0  0  0  0  0  0  0  0  0  0
    1.3733   -0.0859    0.5733 O   0  0  0  0  0  0  0  0  0  0  0  0
    1.8050    0.7222   -0.5422 C   0  0  0  0  0  0  0  0  0  0  0  0
    1.7689   -0.0108   -1.9060 C   0  0  0  0  0  0  0  0  0  0  0  0
    3.0977   -0.7236   -2.2427 C   0  0  0  0  0  0  0  0  0  0  0  0
    4.1874    0.2190   -2.2095 O   0  0  0  0  0  0  0  0  0  0  0  0
    4.2743    0.9805   -1.0772 C   0  0  0  0  0  0  0  0  0  0  0  0
    3.1961    1.2383   -0.2267 C   0  0  0  0  0  0  0  0  0  0  0  0
    3.4474    2.0252    0.9116 C   0  0  0  0  0  0  0  0  0  0  0  0
    4.7115    2.5505    1.1951 C   0  0  0  0  0  0  0  0  0  0  0  0
    5.7609    2.2997    0.3139 C   0  0  0  0  0  0  0  0  0  0  0  0
    5.5389    1.5196   -0.8212 C   0  0  0  0  0  0  0  0  0  0  0  0
    4.9040    3.3437    2.3988 C   0  0  0  0  0  0  0  0  0  0  0  0
    3.8778    3.5491    3.2292 C   0  0  0  0  0  0  0  0  0  0  0  0
    2.5350    3.0070    2.9692 C   0  0  0  0  0  0  0  0  0  0  0  0
    1.6150    3.2050    3.7535 O   0  0  0  0  0  0  0  0  0  0  0  0
    2.3736    2.2858    1.7947 O   0  0  0  0  0  0  0  0  0  0  0  0
    3.4176   -1.9117   -1.3255 C   0  0  0  0  0  0  0  0  0  0  0  0
    3.0634   -1.2536   -3.6892 C   0  0  0  0  0  0  0  0  0  0  0  0
    1.4819    0.9717   -2.9307 O   0  0  0  0  0  0  0  0  0  0  0  0
   -0.8087   -5.9503    1.2317 C   0  0  0  0  0  0  0  0  0  0  0  0
   -0.2222   -4.2415   -1.7332 H   0  0  0  0  0  0  0  0  0  0  0  0
   -1.3521   -5.5497   -1.4340 H   0  0  0  0  0  0  0  0  0  0  0  0
    0.3937   -5.8429   -1.2777 H   0  0  0  0  0  0  0  0  0  0  0  0
    1.6457   -4.7940    1.0547 H   0  0  0  0  0  0  0  0  0  0  0  0
    1.9190   -2.3855    1.3254 H   0  0  0  0  0  0  0  0  0  0  0  0
   -5.8389   -2.3109    1.1708 H   0  0  0  0  0  0  0  0  0  0  0  0
   -4.9145   -0.8502    1.4920 H   0  0  0  0  0  0  0  0  0  0  0  0
   -4.3663   -2.3929    2.1478 H   0  0  0  0  0  0  0  0  0  0  0  0
   -3.9085   -4.3192    0.6091 H   0  0  0  0  0  0  0  0  0  0  0  0
   -3.4977   -4.0545   -1.1029 H   0  0  0  0  0  0  0  0  0  0  0  0
   -5.1693   -3.9689   -0.5516 H   0  0  0  0  0  0  0  0  0  0  0  0
   -5.6052   -1.0473   -1.0480 H   0  0  0  0  0  0  0  0  0  0  0  0
   -3.1689   -1.9239   -2.6973 H   0  0  0  0  0  0  0  0  0  0  0  0
   -4.6591   -0.9671   -3.2567 H   0  0  0  0  0  0  0  0  0  0  0  0
   -0.0475    2.1815    0.9578 H   0  0  0  0  0  0  0  0  0  0  0  0
   -3.7951    4.8566   -0.4256 H   0  0  0  0  0  0  0  0  0  0  0  0
   -2.4783    4.4443   -1.5372 H   0  0  0  0  0  0  0  0  0  0  0  0
   -2.4356    5.9395   -0.5919 H   0  0  0  0  0  0  0  0  0  0  0  0
   -3.6313    4.2760    2.0001 H   0  0  0  0  0  0  0  0  0  0  0  0
   -2.5276    5.6445    2.0744 H   0  0  0  0  0  0  0  0  0  0  0  0
   -2.0582    4.0843    2.7750 H   0  0  0  0  0  0  0  0  0  0  0  0
   -0.0604    4.4461   -0.5557 H   0  0  0  0  0  0  0  0  0  0  0  0
    1.2782    5.5480    1.0826 H   0  0  0  0  0  0  0  0  0  0  0  0
   -0.0748    5.4666    2.3394 H   0  0  0  0  0  0  0  0  0  0  0  0
    1.1850    1.6180   -0.6347 H   0  0  0  0  0  0  0  0  0  0  0  0
    0.9445   -0.7291   -1.9487 H   0  0  0  0  0  0  0  0  0  0  0  0
    6.7558    2.6971    0.4991 H   0  0  0  0  0  0  0  0  0  0  0  0
    6.3602    1.3162   -1.5051 H   0  0  0  0  0  0  0  0  0  0  0  0
    5.8855    3.7533    2.6118 H   0  0  0  0  0  0  0  0  0  0  0  0
    3.9845    4.1275    4.1388 H   0  0  0  0  0  0  0  0  0  0  0  0
    4.3805   -2.3604   -1.5976 H   0  0  0  0  0  0  0  0  0  0  0  0
    2.6487   -2.6861   -1.4008 H   0  0  0  0  0  0  0  0  0  0  0  0
    3.5171   -1.6143   -0.2783 H   0  0  0  0  0  0  0  0  0  0  0  0
    2.9737   -0.4389   -4.4163 H   0  0  0  0  0  0  0  0  0  0  0  0
    2.2337   -1.9518   -3.8412 H   0  0  0  0  0  0  0  0  0  0  0  0
    3.9987   -1.7701   -3.9362 H   0  0  0  0  0  0  0  0  0  0  0  0
    2.3044    1.4772   -3.0776 H   0  0  0  0  0  0  0  0  0  0  0  0
   -0.0378   -6.7236    1.1427 H   0  0  0  0  0  0  0  0  0  0  0  0
   -0.9076   -5.6824    2.2907 H   0  0  0  0  0  0  0  0  0  0  0  0
   -1.7696   -6.3871    0.9344 H   0  0  0  0  0  0  0  0  0  0  0  0
  1  2  1  0
  2  3  1  0
  3  4  2  0
  4  5  1  0
  5  6  2  0
  6  7  1  0
  7  8  2  0
  8  9  1  0
  9 10  2  0
 10 11  1  0
  9 12  1  0
 12 13  1  0
 12 14  1  0
 12 15  1  0
 15 16  2  0
  8 17  1  0
 17 18  1  0
 18 19  2  0
 18 20  1  0
 20 21  2  0
 20 22  1  0
 22 23  1  0
 22 24  1  0
 22 25  1  0
 25 26  2  0
  6 27  1  0
 27 28  1  0
 28 29  1  0
 29 30  1  0
 30 31  1  0
 31 32  1  0
 32 33  2  0
 33 34  1  0
 34 35  2  0
 35 36  1  0
 36 37  2  0
 35 38  1  0
 38 39  2  0
 39 40  1  0
 40 41  2  0
 40 42  1  0
 30 43  1  0
 30 44  1  0
 29 45  1  0
  2 46  1  0
 11  2  1  0
 10  5  1  0
 21  7  1  0
 33 28  1  0
 37 32  1  0
 42 34  1  0
  1 47  1  0
  1 48  1  0
  1 49  1  0
  3 50  1  0
  4 51  1  0
 13 52  1  0
 13 53  1  0
 13 54  1  0
 14 55  1  0
 14 56  1  0
 14 57  1  0
 15 58  1  0
 16 59  1  0
 16 60  1  0
 21 61  1  0
 23 62  1  0
 23 63  1  0
 23 64  1  0
 24 65  1  0
 24 66  1  0
 24 67  1  0
 25 68  1  0
 26 69  1  0
 26 70  1  0
 28 71  1  0
 29 72  1  0
 36 73  1  0
 37 74  1  0
 38 75  1  0
 39 76  1  0
 43 77  1  0
 43 78  1  0
 43 79  1  0
 44 80  1  0
 44 81  1  0
 44 82  1  0
 45 83  1  0
 46 84  1  0
 46 85  1  0
 46 86  1  0
M  END
>  <Name>  (759) 
Khelmarin-C

>  <PubChem ID>  (759) 
85137098

>  <CDB ID>  (759) 
CDB0759

>  <Smiles>  (759) 
CC1(C=CC2=C(C3=C(C(=C2O1)C(C)(C)C=C)OC(=O)C(=C3)C(C)(C)C=C)OC4C(C(OC5=C4C6=C(C=C5)C=CC(=O)O6)(C)C)O)C

>  <Chemical class>  (759) 
Biscoumarins

>  <Natural source>  (759) 
Citrus hassaku

>  <Molecular Formula>  (759) 
C38H40O8

>  <InChI-Key>  (759) 
WHUBSMIUXWASLV-UHFFFAOYSA-N

>  <Total Molweight>  (759) 
624.728

>  <cLogP>  (759) 
7.7181

>  <cLogS>  (759) 
-8.326

>  <H-Acceptors>  (759) 
8

>  <H-Donors>  (759) 
1

>  <Rotatable Bonds>  (759) 
6

>  <Polar Surface Area>  (759) 
100.52

$$$$
CDB0760
     RDKit          3D

 75 78  0  0  0  0  0  0  0  0999 V2000
   -4.0414    2.2214   -3.1178 C   0  0  0  0  0  0  0  0  0  0  0  0
   -3.0945    2.3136   -1.9114 C   0  0  0  0  0  0  0  0  0  0  0  0
   -2.1594    1.1080   -1.9297 C   0  0  0  0  0  0  0  0  0  0  0  0
   -3.9004    2.4633   -0.5841 C   0  0  0  0  0  0  0  0  0  0  0  0
   -3.0558    2.6393    0.6996 C   0  0  0  0  0  0  0  0  0  0  0  0
   -2.4581    1.4282    1.3946 C   0  0  0  0  0  0  0  0  0  0  0  0
   -1.4171    1.6199    2.3267 C   0  0  0  0  0  0  0  0  0  0  0  0
   -0.8210    0.5550    3.0223 C   0  0  0  0  0  0  0  0  0  0  0  0
   -1.2935   -0.7321    2.7461 C   0  0  0  0  0  0  0  0  0  0  0  0
   -2.3341   -0.9629    1.8467 C   0  0  0  0  0  0  0  0  0  0  0  0
   -2.9283    0.1214    1.1934 C   0  0  0  0  0  0  0  0  0  0  0  0
   -2.7794   -2.3281    1.6095 C   0  0  0  0  0  0  0  0  0  0  0  0
   -2.1787   -3.3428    2.2379 C   0  0  0  0  0  0  0  0  0  0  0  0
   -1.0690   -3.1346    3.1795 C   0  0  0  0  0  0  0  0  0  0  0  0
   -0.5191   -4.0771    3.7346 O   0  0  0  0  0  0  0  0  0  0  0  0
   -0.6751   -1.8214    3.4012 O   0  0  0  0  0  0  0  0  0  0  0  0
    0.2373    0.7859    4.0709 C   0  0  0  0  0  0  0  0  0  0  0  0
    1.2159    1.7291    3.6235 O   0  0  0  0  0  0  0  0  0  0  0  0
    2.3399    1.1343    2.9622 C   0  0  0  0  0  0  0  0  0  0  0  0
    2.0457    0.8294    1.5165 C   0  0  0  0  0  0  0  0  0  0  0  0
    1.8154    1.8817    0.6150 C   0  0  0  0  0  0  0  0  0  0  0  0
    1.5380    1.6634   -0.7335 C   0  0  0  0  0  0  0  0  0  0  0  0
    1.5030    0.3542   -1.2136 C   0  0  0  0  0  0  0  0  0  0  0  0
    1.7199   -0.7311   -0.3484 C   0  0  0  0  0  0  0  0  0  0  0  0
    1.9850   -0.4757    1.0081 C   0  0  0  0  0  0  0  0  0  0  0  0
    2.1956   -1.5628    1.8134 O   0  0  0  0  0  0  0  0  0  0  0  0
    1.6448   -2.1444   -0.9022 C   0  0  0  0  0  0  0  0  0  0  0  0
    3.0399   -2.7833   -1.0746 C   0  0  0  0  0  0  0  0  0  0  0  0
    3.0918   -3.8903   -2.1671 C   0  0  0  0  0  0  0  0  0  0  0  0
    2.7508   -3.3656   -3.5639 C   0  0  0  0  0  0  0  0  0  0  0  0
    4.4749   -4.5580   -2.2087 C   0  0  0  0  0  0  0  0  0  0  0  0
    2.1374   -4.9076   -1.8312 O   0  0  0  0  0  0  0  0  0  0  0  0
    3.4119   -3.4056    0.1720 O   0  0  0  0  0  0  0  0  0  0  0  0
    1.2591    2.7994   -1.5973 C   0  0  0  0  0  0  0  0  0  0  0  0
    1.2781    4.0369   -1.0944 C   0  0  0  0  0  0  0  0  0  0  0  0
    1.6020    4.3080    0.3143 C   0  0  0  0  0  0  0  0  0  0  0  0
    1.6527    5.4552    0.7418 O   0  0  0  0  0  0  0  0  0  0  0  0
    1.8649    3.2051    1.1154 O   0  0  0  0  0  0  0  0  0  0  0  0
   -0.9891    2.9057    2.5396 O   0  0  0  0  0  0  0  0  0  0  0  0
   -4.6907    3.6706   -0.6993 O   0  0  0  0  0  0  0  0  0  0  0  0
   -2.2927    3.4870   -2.1134 O   0  0  0  0  0  0  0  0  0  0  0  0
   -4.6334    3.1353   -3.2373 H   0  0  0  0  0  0  0  0  0  0  0  0
   -3.4743    2.1111   -4.0498 H   0  0  0  0  0  0  0  0  0  0  0  0
   -4.7238    1.3701   -3.0270 H   0  0  0  0  0  0  0  0  0  0  0  0
   -1.6092    1.0559   -2.8768 H   0  0  0  0  0  0  0  0  0  0  0  0
   -1.3976    1.1855   -1.1515 H   0  0  0  0  0  0  0  0  0  0  0  0
   -2.7062    0.1689   -1.8028 H   0  0  0  0  0  0  0  0  0  0  0  0
   -4.6105    1.6381   -0.4693 H   0  0  0  0  0  0  0  0  0  0  0  0
   -3.6865    3.1355    1.4514 H   0  0  0  0  0  0  0  0  0  0  0  0
   -2.2557    3.3563    0.4740 H   0  0  0  0  0  0  0  0  0  0  0  0
   -3.7546   -0.0703    0.5162 H   0  0  0  0  0  0  0  0  0  0  0  0
   -3.5954   -2.5068    0.9175 H   0  0  0  0  0  0  0  0  0  0  0  0
   -2.4798   -4.3717    2.0818 H   0  0  0  0  0  0  0  0  0  0  0  0
   -0.2547    1.2242    4.9471 H   0  0  0  0  0  0  0  0  0  0  0  0
    0.7238   -0.1329    4.4136 H   0  0  0  0  0  0  0  0  0  0  0  0
    2.6982    0.2626    3.5207 H   0  0  0  0  0  0  0  0  0  0  0  0
    3.1599    1.8613    3.0027 H   0  0  0  0  0  0  0  0  0  0  0  0
    1.2848    0.1728   -2.2644 H   0  0  0  0  0  0  0  0  0  0  0  0
    1.6804   -1.4435    2.6318 H   0  0  0  0  0  0  0  0  0  0  0  0
    1.0177   -2.7494   -0.2343 H   0  0  0  0  0  0  0  0  0  0  0  0
    1.1074   -2.0972   -1.8536 H   0  0  0  0  0  0  0  0  0  0  0  0
    3.7952   -2.0203   -1.3001 H   0  0  0  0  0  0  0  0  0  0  0  0
    1.7024   -3.0639   -3.6460 H   0  0  0  0  0  0  0  0  0  0  0  0
    3.3861   -2.5177   -3.8394 H   0  0  0  0  0  0  0  0  0  0  0  0
    2.8854   -4.1523   -4.3160 H   0  0  0  0  0  0  0  0  0  0  0  0
    4.7174   -5.0454   -1.2580 H   0  0  0  0  0  0  0  0  0  0  0  0
    4.5010   -5.3506   -2.9657 H   0  0  0  0  0  0  0  0  0  0  0  0
    5.2620   -3.8329   -2.4399 H   0  0  0  0  0  0  0  0  0  0  0  0
    2.3359   -5.1388   -0.9009 H   0  0  0  0  0  0  0  0  0  0  0  0
    3.2120   -2.7588    0.8809 H   0  0  0  0  0  0  0  0  0  0  0  0
    1.0018    2.6278   -2.6369 H   0  0  0  0  0  0  0  0  0  0  0  0
    1.0494    4.9028   -1.7032 H   0  0  0  0  0  0  0  0  0  0  0  0
   -0.0908    2.8741    2.9313 H   0  0  0  0  0  0  0  0  0  0  0  0
   -5.5159    3.4402   -1.1610 H   0  0  0  0  0  0  0  0  0  0  0  0
   -2.8391    4.2370   -1.8009 H   0  0  0  0  0  0  0  0  0  0  0  0
  1  2  1  0
  2  3  1  0
  2  4  1  0
  4  5  1  0
  5  6  1  0
  6  7  2  0
  7  8  1  0
  8  9  2  0
  9 10  1  0
 10 11  2  0
 10 12  1  0
 12 13  2  0
 13 14  1  0
 14 15  2  0
 14 16  1  0
  8 17  1  0
 17 18  1  0
 18 19  1  0
 19 20  1  0
 20 21  2  0
 21 22  1  0
 22 23  2  0
 23 24  1  0
 24 25  2  0
 25 26  1  0
 24 27  1  0
 27 28  1  0
 28 29  1  0
 29 30  1  0
 29 31  1  0
 29 32  1  0
 28 33  1  0
 22 34  1  0
 34 35  2  0
 35 36  1  0
 36 37  2  0
 36 38  1  0
  7 39  1  0
  4 40  1  0
  2 41  1  0
 11  6  1  0
 16  9  1  0
 25 20  1  0
 38 21  1  0
  1 42  1  0
  1 43  1  0
  1 44  1  0
  3 45  1  0
  3 46  1  0
  3 47  1  0
  4 48  1  0
  5 49  1  0
  5 50  1  0
 11 51  1  0
 12 52  1  0
 13 53  1  0
 17 54  1  0
 17 55  1  0
 19 56  1  0
 19 57  1  0
 23 58  1  0
 26 59  1  0
 27 60  1  0
 27 61  1  0
 28 62  1  0
 30 63  1  0
 30 64  1  0
 30 65  1  0
 31 66  1  0
 31 67  1  0
 31 68  1  0
 32 69  1  0
 33 70  1  0
 34 71  1  0
 35 72  1  0
 39 73  1  0
 40 74  1  0
 41 75  1  0
M  END
>  <Name>  (760) 
Gigasol

>  <PubChem ID>  (760) 
101419857

>  <CDB ID>  (760) 
CDB0760

>  <Smiles>  (760) 
CC(C)(C(CC1=C(C(=C2C(=C1)C=CC(=O)O2)COCC3=C4C(=CC(=C3O)CC(C(C)(C)O)O)C=CC(=O)O4)O)O)O

>  <Chemical class>  (760) 
Biscoumarins

>  <Natural source>  (760) 
Angelica gigas

>  <Molecular Formula>  (760) 
C30H34O11

>  <InChI-Key>  (760) 
MDNQVRKYHGPJNA-UHFFFAOYSA-N

>  <Total Molweight>  (760) 
570.589

>  <cLogP>  (760) 
1.9031

>  <cLogS>  (760) 
-4.575

>  <H-Acceptors>  (760) 
11

>  <H-Donors>  (760) 
6

>  <Rotatable Bonds>  (760) 
10

>  <Polar Surface Area>  (760) 
183.21

$$$$
CDB0761
     RDKit          3D

113116  0  0  0  0  0  0  0  0999 V2000
   -7.0643    0.4619    3.6083 C   0  0  0  0  0  0  0  0  0  0  0  0
   -6.8146   -0.7387    2.7391 C   0  0  0  0  0  0  0  0  0  0  0  0
   -7.1520   -2.0568    3.3851 C   0  0  0  0  0  0  0  0  0  0  0  0
   -6.3219   -0.6965    1.4860 C   0  0  0  0  0  0  0  0  0  0  0  0
   -5.9675    0.5212    0.6781 C   0  0  0  0  0  0  0  0  0  0  0  0
   -4.4704    0.8625    0.6753 C   0  0  0  0  0  0  0  0  0  0  0  0
   -3.6038   -0.1117   -0.1118 C   0  0  0  0  0  0  0  0  0  0  0  0
   -2.9517   -1.1754    0.7285 C   0  0  0  0  0  0  0  0  0  0  0  0
   -3.4768    0.0534   -1.4467 C   0  0  0  0  0  0  0  0  0  0  0  0
   -2.6975   -0.6830   -2.5166 C   0  0  2  0  0  0  0  0  0  0  0  0
   -3.6092   -1.3397   -3.5876 C   0  0  0  0  0  0  0  0  0  0  0  0
   -4.7496   -2.2187   -3.0964 C   0  0  0  0  0  0  0  0  0  0  0  0
   -4.3366   -3.4290   -2.2968 C   0  0  0  0  0  0  0  0  0  0  0  0
   -6.0562   -2.0036   -3.3585 C   0  0  0  0  0  0  0  0  0  0  0  0
   -6.6854   -0.9144   -4.1912 C   0  0  0  0  0  0  0  0  0  0  0  0
   -7.2477    0.2043   -3.3533 C   0  0  0  0  0  0  0  0  0  0  0  0
   -6.7035    1.4302   -3.2857 C   0  0  0  0  0  0  0  0  0  0  0  0
   -5.5849    1.7547   -4.0296 O   0  0  0  0  0  0  0  0  0  0  0  0
   -7.2732    2.4659   -2.4203 C   0  0  0  0  0  0  0  0  0  0  0  0
   -6.6736    3.7086   -2.1744 C   0  0  0  0  0  0  0  0  0  0  0  0
   -7.2818    4.6375   -1.3208 C   0  0  0  0  0  0  0  0  0  0  0  0
   -8.4892    4.3326   -0.6938 C   0  0  0  0  0  0  0  0  0  0  0  0
   -9.0842    3.0936   -0.9086 C   0  0  0  0  0  0  0  0  0  0  0  0
   -8.4648    2.1789   -1.7600 C   0  0  0  0  0  0  0  0  0  0  0  0
   -9.0872    0.9275   -1.9001 O   0  0  0  0  0  0  0  0  0  0  0  0
   -8.5167   -0.0965   -2.6436 C   0  0  0  0  0  0  0  0  0  0  0  0
   -9.0712   -1.1873   -2.7336 O   0  0  0  0  0  0  0  0  0  0  0  0
   -1.8026   -1.6671   -2.0030 O   0  0  0  0  0  0  0  0  0  0  0  0
   -0.4762   -1.1728   -1.8315 C   0  0  0  0  0  0  0  0  0  0  0  0
    0.3725   -2.2734   -1.2449 C   0  0  0  0  0  0  0  0  0  0  0  0
    0.4454   -3.5239   -2.0845 C   0  0  0  0  0  0  0  0  0  0  0  0
    1.0592   -2.1937   -0.0867 C   0  0  0  0  0  0  0  0  0  0  0  0
    1.1038   -1.0446    0.8836 C   0  0  0  0  0  0  0  0  0  0  0  0
    2.3442   -0.1519    0.7337 C   0  0  0  0  0  0  0  0  0  0  0  0
    3.6597   -0.8250    1.0911 C   0  0  0  0  0  0  0  0  0  0  0  0
    4.4576   -1.3206   -0.0854 C   0  0  0  0  0  0  0  0  0  0  0  0
    4.0447   -0.9020    2.3818 C   0  0  0  0  0  0  0  0  0  0  0  0
    5.3151   -1.4852    2.9454 C   0  0  0  0  0  0  0  0  0  0  0  0
    6.0155   -0.5525    3.9536 C   0  0  0  0  0  0  0  0  0  0  0  0
    6.7073    0.7180    3.4609 C   0  0  0  0  0  0  0  0  0  0  0  0
    7.2185    1.5675    4.5990 C   0  0  0  0  0  0  0  0  0  0  0  0
    6.8350    1.0383    2.1565 C   0  0  0  0  0  0  0  0  0  0  0  0
    7.4807    2.2479    1.5318 C   0  0  0  0  0  0  0  0  0  0  0  0
    8.5839    1.8608    0.5770 C   0  0  0  0  0  0  0  0  0  0  0  0
    9.8390    1.5580    0.9551 C   0  0  0  0  0  0  0  0  0  0  0  0
   10.2533    1.4937    2.2700 O   0  0  0  0  0  0  0  0  0  0  0  0
   10.8716    1.2612   -0.0363 C   0  0  0  0  0  0  0  0  0  0  0  0
   12.1958    0.9546    0.2993 C   0  0  0  0  0  0  0  0  0  0  0  0
   13.1378    0.6799   -0.6984 C   0  0  0  0  0  0  0  0  0  0  0  0
   12.7654    0.7089   -2.0424 C   0  0  0  0  0  0  0  0  0  0  0  0
   11.4515    1.0127   -2.3900 C   0  0  0  0  0  0  0  0  0  0  0  0
   10.5260    1.2840   -1.3824 C   0  0  0  0  0  0  0  0  0  0  0  0
    9.2148    1.5826   -1.7848 O   0  0  0  0  0  0  0  0  0  0  0  0
    8.2170    1.8680   -0.8641 C   0  0  0  0  0  0  0  0  0  0  0  0
    7.0741    2.1123   -1.2381 O   0  0  0  0  0  0  0  0  0  0  0  0
   -8.1373    0.5767    3.7926 H   0  0  0  0  0  0  0  0  0  0  0  0
   -6.5599    0.3391    4.5728 H   0  0  0  0  0  0  0  0  0  0  0  0
   -6.6952    1.3944    3.1747 H   0  0  0  0  0  0  0  0  0  0  0  0
   -6.5509   -2.2013    4.2888 H   0  0  0  0  0  0  0  0  0  0  0  0
   -6.9626   -2.9065    2.7208 H   0  0  0  0  0  0  0  0  0  0  0  0
   -8.2108   -2.0818    3.6629 H   0  0  0  0  0  0  0  0  0  0  0  0
   -6.1699   -1.6361    0.9531 H   0  0  0  0  0  0  0  0  0  0  0  0
   -6.5281    1.3938    1.0300 H   0  0  0  0  0  0  0  0  0  0  0  0
   -6.3117    0.3512   -0.3478 H   0  0  0  0  0  0  0  0  0  0  0  0
   -4.3535    1.8656    0.2421 H   0  0  0  0  0  0  0  0  0  0  0  0
   -4.0965    0.9499    1.7036 H   0  0  0  0  0  0  0  0  0  0  0  0
   -2.5084   -1.9880    0.1565 H   0  0  0  0  0  0  0  0  0  0  0  0
   -3.6813   -1.6436    1.3956 H   0  0  0  0  0  0  0  0  0  0  0  0
   -2.1694   -0.7294    1.3503 H   0  0  0  0  0  0  0  0  0  0  0  0
   -4.0375    0.8812   -1.8833 H   0  0  0  0  0  0  0  0  0  0  0  0
   -2.1092    0.0745   -3.0543 H   0  0  0  0  0  0  0  0  0  0  0  0
   -3.9978   -0.5339   -4.2177 H   0  0  0  0  0  0  0  0  0  0  0  0
   -2.9831   -1.9565   -4.2467 H   0  0  0  0  0  0  0  0  0  0  0  0
   -3.9676   -3.1382   -1.3110 H   0  0  0  0  0  0  0  0  0  0  0  0
   -5.1692   -4.1238   -2.1413 H   0  0  0  0  0  0  0  0  0  0  0  0
   -3.5490   -3.9813   -2.8199 H   0  0  0  0  0  0  0  0  0  0  0  0
   -6.7834   -2.7054   -2.9457 H   0  0  0  0  0  0  0  0  0  0  0  0
   -7.4871   -1.3612   -4.7943 H   0  0  0  0  0  0  0  0  0  0  0  0
   -5.9786   -0.5371   -4.9372 H   0  0  0  0  0  0  0  0  0  0  0  0
   -5.6515    2.6896   -4.2884 H   0  0  0  0  0  0  0  0  0  0  0  0
   -5.7159    3.9736   -2.6133 H   0  0  0  0  0  0  0  0  0  0  0  0
   -6.8055    5.5982   -1.1371 H   0  0  0  0  0  0  0  0  0  0  0  0
   -8.9571    5.0538   -0.0283 H   0  0  0  0  0  0  0  0  0  0  0  0
  -10.0142    2.8352   -0.4099 H   0  0  0  0  0  0  0  0  0  0  0  0
   -0.4943   -0.2763   -1.2061 H   0  0  0  0  0  0  0  0  0  0  0  0
   -0.0643   -0.8909   -2.8084 H   0  0  0  0  0  0  0  0  0  0  0  0
    1.1297   -4.2676   -1.6625 H   0  0  0  0  0  0  0  0  0  0  0  0
   -0.5408   -3.9922   -2.1651 H   0  0  0  0  0  0  0  0  0  0  0  0
    0.8016   -3.2841   -3.0918 H   0  0  0  0  0  0  0  0  0  0  0  0
    1.6535   -3.0534    0.2234 H   0  0  0  0  0  0  0  0  0  0  0  0
    1.0571   -1.4541    1.9008 H   0  0  0  0  0  0  0  0  0  0  0  0
    0.2115   -0.4186    0.7862 H   0  0  0  0  0  0  0  0  0  0  0  0
    2.2120    0.7254    1.3819 H   0  0  0  0  0  0  0  0  0  0  0  0
    2.3967    0.2512   -0.2861 H   0  0  0  0  0  0  0  0  0  0  0  0
    3.8623   -2.0070   -0.6946 H   0  0  0  0  0  0  0  0  0  0  0  0
    5.3644   -1.8578    0.1988 H   0  0  0  0  0  0  0  0  0  0  0  0
    4.7579   -0.4765   -0.7152 H   0  0  0  0  0  0  0  0  0  0  0  0
    3.3661   -0.5042    3.1373 H   0  0  0  0  0  0  0  0  0  0  0  0
    5.0358   -2.4030    3.4789 H   0  0  0  0  0  0  0  0  0  0  0  0
    6.0262   -1.7898    2.1733 H   0  0  0  0  0  0  0  0  0  0  0  0
    6.7778   -1.1512    4.4706 H   0  0  0  0  0  0  0  0  0  0  0  0
    5.2814   -0.2656    4.7191 H   0  0  0  0  0  0  0  0  0  0  0  0
    7.9440    1.0005    5.1922 H   0  0  0  0  0  0  0  0  0  0  0  0
    7.7108    2.4869    4.2786 H   0  0  0  0  0  0  0  0  0  0  0  0
    6.3893    1.8573    5.2533 H   0  0  0  0  0  0  0  0  0  0  0  0
    6.4102    0.3688    1.4103 H   0  0  0  0  0  0  0  0  0  0  0  0
    7.8857    2.9368    2.2789 H   0  0  0  0  0  0  0  0  0  0  0  0
    6.7012    2.8294    1.0253 H   0  0  0  0  0  0  0  0  0  0  0  0
    9.4726    1.4621    2.8486 H   0  0  0  0  0  0  0  0  0  0  0  0
   12.5069    0.9277    1.3414 H   0  0  0  0  0  0  0  0  0  0  0  0
   14.1629    0.4435   -0.4231 H   0  0  0  0  0  0  0  0  0  0  0  0
   13.4986    0.4951   -2.8159 H   0  0  0  0  0  0  0  0  0  0  0  0
   11.1505    1.0377   -3.4332 H   0  0  0  0  0  0  0  0  0  0  0  0
  1  2  1  0
  2  3  1  0
  2  4  2  3
  4  5  1  0
  5  6  1  0
  6  7  1  0
  7  8  1  0
  7  9  2  3
  9 10  1  0
 10 11  1  0
 11 12  1  0
 12 13  1  0
 12 14  2  3
 14 15  1  0
 15 16  1  0
 16 17  2  0
 17 18  1  0
 17 19  1  0
 19 20  2  0
 20 21  1  0
 21 22  2  0
 22 23  1  0
 23 24  2  0
 24 25  1  0
 25 26  1  0
 26 27  2  0
 10 28  1  0
 28 29  1  0
 29 30  1  0
 30 31  1  0
 30 32  2  3
 32 33  1  0
 33 34  1  0
 34 35  1  0
 35 36  1  0
 35 37  2  3
 37 38  1  0
 38 39  1  0
 39 40  1  0
 40 41  1  0
 40 42  2  3
 42 43  1  0
 43 44  1  0
 44 45  2  0
 45 46  1  0
 45 47  1  0
 47 48  2  0
 48 49  1  0
 49 50  2  0
 50 51  1  0
 51 52  2  0
 52 53  1  0
 53 54  1  0
 54 55  2  0
 26 16  1  0
 54 44  1  0
 24 19  1  0
 52 47  1  0
  1 56  1  0
  1 57  1  0
  1 58  1  0
  3 59  1  0
  3 60  1  0
  3 61  1  0
  4 62  1  0
  5 63  1  0
  5 64  1  0
  6 65  1  0
  6 66  1  0
  8 67  1  0
  8 68  1  0
  8 69  1  0
  9 70  1  0
 10 71  1  6
 11 72  1  0
 11 73  1  0
 13 74  1  0
 13 75  1  0
 13 76  1  0
 14 77  1  0
 15 78  1  0
 15 79  1  0
 18 80  1  0
 20 81  1  0
 21 82  1  0
 22 83  1  0
 23 84  1  0
 29 85  1  0
 29 86  1  0
 31 87  1  0
 31 88  1  0
 31 89  1  0
 32 90  1  0
 33 91  1  0
 33 92  1  0
 34 93  1  0
 34 94  1  0
 36 95  1  0
 36 96  1  0
 36 97  1  0
 37 98  1  0
 38 99  1  0
 38100  1  0
 39101  1  0
 39102  1  0
 41103  1  0
 41104  1  0
 41105  1  0
 42106  1  0
 43107  1  0
 43108  1  0
 46109  1  0
 48110  1  0
 49111  1  0
 50112  1  0
 51113  1  0
M  END
>  <Name>  (761) 
Ferulenoloxyferulenol

>  <PubChem ID>  (761) 
101607469

>  <CDB ID>  (761) 
CDB0761

>  <Smiles>  (761) 
CC(C)=CCCC(C)=C[C@H](CC(C)=CCC1=C(O)C2=CC=CC=C2OC1=O)OCC(C)=CCCC(C)=CCCC(C)=CCC1=C(O)C2=CC=CC=C2OC1=O

>  <Chemical class>  (761) 
Biscoumarins

>  <Natural source>  (761) 
Ferula communis var. genuina

>  <Molecular Formula>  (761) 
C48H58O7

>  <InChI-Key>  (761) 
DZZBDBJVZYCYGH-KXQOOQHDSA-N

>  <Total Molweight>  (761) 
746.982

>  <cLogP>  (761) 
14.068

>  <cLogS>  (761) 
-8.415

>  <H-Acceptors>  (761) 
7

>  <H-Donors>  (761) 
2

>  <Rotatable Bonds>  (761) 
19

>  <Polar Surface Area>  (761) 
102.29

$$$$
CDB0762
     RDKit          3D

 70 75  0  0  0  0  0  0  0  0999 V2000
    1.2140    2.6293   -2.0815 C   0  0  0  0  0  0  0  0  0  0  0  0
    1.0053    1.8907   -0.7849 C   0  0  0  0  0  0  0  0  0  0  0  0
    1.7544    0.8438   -0.3756 C   0  0  0  0  0  0  0  0  0  0  0  0
    2.9225    0.1910   -1.0575 C   0  0  0  0  0  0  0  0  0  0  0  0
    3.9894    0.1490   -0.1105 O   0  0  0  0  0  0  0  0  0  0  0  0
    5.1683   -0.4449   -0.5235 C   0  0  0  0  0  0  0  0  0  0  0  0
    5.4525   -1.0373   -1.7626 C   0  0  0  0  0  0  0  0  0  0  0  0
    4.6110   -1.1519   -2.8344 O   0  0  0  0  0  0  0  0  0  0  0  0
    5.2862   -1.7880   -3.8231 C   0  0  0  0  0  0  0  0  0  0  0  0
    6.5616   -2.0941   -3.4153 C   0  0  0  0  0  0  0  0  0  0  0  0
    6.6828   -1.6142   -2.0831 C   0  0  0  0  0  0  0  0  0  0  0  0
    7.7129   -1.6136   -1.1226 C   0  0  0  0  0  0  0  0  0  0  0  0
    7.4724   -1.0335    0.1296 C   0  0  0  0  0  0  0  0  0  0  0  0
    6.2246   -0.4680    0.4051 C   0  0  0  0  0  0  0  0  0  0  0  0
    5.9848    0.1186    1.6761 O   0  0  0  0  0  0  0  0  0  0  0  0
    6.9514    0.1539    2.6677 C   0  0  0  0  0  0  0  0  0  0  0  0
    6.7575    0.6568    3.7682 O   0  0  0  0  0  0  0  0  0  0  0  0
    8.2530   -0.4511    2.3405 C   0  0  0  0  0  0  0  0  0  0  0  0
    8.5064   -1.0100    1.1538 C   0  0  0  0  0  0  0  0  0  0  0  0
   -0.1493    2.4507    0.0282 C   0  0  0  0  0  0  0  0  0  0  0  0
   -0.3903    1.6561    1.1884 O   0  0  0  0  0  0  0  0  0  0  0  0
   -1.6424    1.8644    1.8857 C   0  0  0  0  0  0  0  0  0  0  0  0
   -1.8713    3.3513    2.1921 C   0  0  0  0  0  0  0  0  0  0  0  0
   -1.4623    1.1099    3.2143 C   0  0  0  0  0  0  0  0  0  0  0  0
   -2.7960    1.2452    1.0411 C   0  0  1  0  0  0  0  0  0  0  0  0
   -2.3988   -0.0844    0.6409 O   0  0  0  0  0  0  0  0  0  0  0  0
   -4.1560    1.1667    1.7599 C   0  0  0  0  0  0  0  0  0  0  0  0
   -5.2352    1.1306    0.8058 O   0  0  0  0  0  0  0  0  0  0  0  0
   -5.5057   -0.1487    0.3825 C   0  0  0  0  0  0  0  0  0  0  0  0
   -6.1298   -1.1115    1.1790 C   0  0  0  0  0  0  0  0  0  0  0  0
   -6.5211   -0.9576    2.4778 O   0  0  0  0  0  0  0  0  0  0  0  0
   -7.0737   -2.1341    2.8699 C   0  0  0  0  0  0  0  0  0  0  0  0
   -7.0505   -3.0478    1.8419 C   0  0  0  0  0  0  0  0  0  0  0  0
   -6.4453   -2.3936    0.7356 C   0  0  0  0  0  0  0  0  0  0  0  0
   -6.1332   -2.7507   -0.5921 C   0  0  0  0  0  0  0  0  0  0  0  0
   -5.5284   -1.7985   -1.4290 C   0  0  0  0  0  0  0  0  0  0  0  0
   -5.2404   -0.5223   -0.9398 C   0  0  0  0  0  0  0  0  0  0  0  0
   -4.6366    0.4446   -1.7798 O   0  0  0  0  0  0  0  0  0  0  0  0
   -4.2662    0.1499   -3.0805 C   0  0  0  0  0  0  0  0  0  0  0  0
   -3.7036    0.9617   -3.8069 O   0  0  0  0  0  0  0  0  0  0  0  0
   -4.5911   -1.1994   -3.5730 C   0  0  0  0  0  0  0  0  0  0  0  0
   -5.1870   -2.1185   -2.8075 C   0  0  0  0  0  0  0  0  0  0  0  0
    0.2956    2.6074   -2.6782 H   0  0  0  0  0  0  0  0  0  0  0  0
    2.0073    2.2129   -2.7046 H   0  0  0  0  0  0  0  0  0  0  0  0
    1.4683    3.6753   -1.8799 H   0  0  0  0  0  0  0  0  0  0  0  0
    1.5202    0.3841    0.5846 H   0  0  0  0  0  0  0  0  0  0  0  0
    2.6241   -0.8273   -1.3314 H   0  0  0  0  0  0  0  0  0  0  0  0
    3.2405    0.7461   -1.9423 H   0  0  0  0  0  0  0  0  0  0  0  0
    4.7338   -1.9464   -4.7391 H   0  0  0  0  0  0  0  0  0  0  0  0
    7.3131   -2.6008   -4.0040 H   0  0  0  0  0  0  0  0  0  0  0  0
    8.6746   -2.0593   -1.3600 H   0  0  0  0  0  0  0  0  0  0  0  0
    8.9976   -0.4151    3.1263 H   0  0  0  0  0  0  0  0  0  0  0  0
    9.4750   -1.4486    0.9400 H   0  0  0  0  0  0  0  0  0  0  0  0
    0.0997    3.4710    0.3392 H   0  0  0  0  0  0  0  0  0  0  0  0
   -1.0383    2.4778   -0.6082 H   0  0  0  0  0  0  0  0  0  0  0  0
   -2.1021    3.9142    1.2812 H   0  0  0  0  0  0  0  0  0  0  0  0
   -2.6954    3.5052    2.8952 H   0  0  0  0  0  0  0  0  0  0  0  0
   -0.9701    3.8016    2.6238 H   0  0  0  0  0  0  0  0  0  0  0  0
   -0.5900    1.4921    3.7580 H   0  0  0  0  0  0  0  0  0  0  0  0
   -2.3358    1.2063    3.8665 H   0  0  0  0  0  0  0  0  0  0  0  0
   -1.2714    0.0444    3.0438 H   0  0  0  0  0  0  0  0  0  0  0  0
   -2.9222    1.8072    0.1100 H   0  0  0  0  0  0  0  0  0  0  0  0
   -1.4396   -0.0243    0.4551 H   0  0  0  0  0  0  0  0  0  0  0  0
   -4.3321    2.0716    2.3478 H   0  0  0  0  0  0  0  0  0  0  0  0
   -4.1961    0.3149    2.4493 H   0  0  0  0  0  0  0  0  0  0  0  0
   -7.4311   -2.1630    3.8899 H   0  0  0  0  0  0  0  0  0  0  0  0
   -7.4273   -4.0596    1.8832 H   0  0  0  0  0  0  0  0  0  0  0  0
   -6.3661   -3.7482   -0.9531 H   0  0  0  0  0  0  0  0  0  0  0  0
   -4.3149   -1.4035   -4.6000 H   0  0  0  0  0  0  0  0  0  0  0  0
   -5.4141   -3.1059   -3.1939 H   0  0  0  0  0  0  0  0  0  0  0  0
  1  2  1  0
  2  3  2  3
  3  4  1  0
  4  5  1  0
  5  6  1  0
  6  7  2  0
  7  8  1  0
  8  9  1  0
  9 10  2  0
 10 11  1  0
 11 12  2  0
 12 13  1  0
 13 14  2  0
 14 15  1  0
 15 16  1  0
 16 17  2  0
 16 18  1  0
 18 19  2  0
  2 20  1  0
 20 21  1  0
 21 22  1  0
 22 23  1  0
 22 24  1  0
 22 25  1  0
 25 26  1  0
 25 27  1  0
 27 28  1  0
 28 29  1  0
 29 30  2  0
 30 31  1  0
 31 32  1  0
 32 33  2  0
 33 34  1  0
 34 35  2  0
 35 36  1  0
 36 37  2  0
 37 38  1  0
 38 39  1  0
 39 40  2  0
 39 41  1  0
 41 42  2  0
 14  6  1  0
 37 29  1  0
 11  7  1  0
 19 13  1  0
 34 30  1  0
 42 36  1  0
  1 43  1  0
  1 44  1  0
  1 45  1  0
  3 46  1  0
  4 47  1  0
  4 48  1  0
  9 49  1  0
 10 50  1  0
 12 51  1  0
 18 52  1  0
 19 53  1  0
 20 54  1  0
 20 55  1  0
 23 56  1  0
 23 57  1  0
 23 58  1  0
 24 59  1  0
 24 60  1  0
 24 61  1  0
 25 62  1  6
 26 63  1  0
 27 64  1  0
 27 65  1  0
 32 66  1  0
 33 67  1  0
 35 68  1  0
 41 69  1  0
 42 70  1  0
M  END
>  <Name>  (762) 
Candicanin

>  <PubChem ID>  (762) 
12302378

>  <CDB ID>  (762) 
CDB0762

>  <Smiles>  (762) 
CC(=CCOC1=C2OC=CC2=CC2=C1OC(=O)C=C2)COC(C)(C)[C@@H](O)COC1=C2OC=CC2=CC2=C1OC(=O)C=C2

>  <Chemical class>  (762) 
Biscoumarins

>  <Natural source>  (762) 
Heracleum candicans

>  <Molecular Formula>  (762) 
C32H28O10

>  <InChI-Key>  (762) 
GLGOFDCTFNYYFK-QHCPKHFHSA-N

>  <Total Molweight>  (762) 
572.564

>  <cLogP>  (762) 
4.9364

>  <cLogS>  (762) 
-7.425

>  <H-Acceptors>  (762) 
10

>  <H-Donors>  (762) 
1

>  <Rotatable Bonds>  (762) 
10

>  <Polar Surface Area>  (762) 
126.8

$$$$
CDB0763
     RDKit          3D

 70 75  0  0  0  0  0  0  0  0999 V2000
   -0.8563    2.0608    1.4025 C   0  0  0  0  0  0  0  0  0  0  0  0
   -0.0364    1.9601    0.1448 C   0  0  0  0  0  0  0  0  0  0  0  0
    0.4110    3.0719   -0.4671 C   0  0  0  0  0  0  0  0  0  0  0  0
    0.2173    0.5429   -0.3715 C   0  0  0  0  0  0  0  0  0  0  0  0
    1.1971   -0.2443    0.5321 C   0  0  0  0  0  0  0  0  0  0  0  0
    2.4394    0.4550    0.6567 O   0  0  0  0  0  0  0  0  0  0  0  0
    3.4339   -0.1634    1.3912 C   0  0  0  0  0  0  0  0  0  0  0  0
    4.6648    0.5110    1.4827 C   0  0  0  0  0  0  0  0  0  0  0  0
    5.7626    0.0056    2.1840 C   0  0  0  0  0  0  0  0  0  0  0  0
    5.6623   -1.2283    2.8399 C   0  0  0  0  0  0  0  0  0  0  0  0
    4.4459   -1.9356    2.7800 C   0  0  0  0  0  0  0  0  0  0  0  0
    3.3759   -1.3909    2.0677 C   0  0  0  0  0  0  0  0  0  0  0  0
    2.3059   -2.2390    2.1487 O   0  0  0  0  0  0  0  0  0  0  0  0
    2.6829   -3.3104    2.8888 C   0  0  0  0  0  0  0  0  0  0  0  0
    3.9854   -3.1744    3.3032 C   0  0  0  0  0  0  0  0  0  0  0  0
    6.9989    0.7731    2.2198 C   0  0  0  0  0  0  0  0  0  0  0  0
    7.0684    1.9495    1.5906 C   0  0  0  0  0  0  0  0  0  0  0  0
    5.9307    2.5184    0.8491 C   0  0  0  0  0  0  0  0  0  0  0  0
    6.0318    3.6064    0.2942 O   0  0  0  0  0  0  0  0  0  0  0  0
    4.7693    1.7647    0.8233 O   0  0  0  0  0  0  0  0  0  0  0  0
    0.7308    0.6020   -1.7085 O   0  0  0  0  0  0  0  0  0  0  0  0
    0.1707   -0.2420   -2.7298 C   0  0  0  0  0  0  0  0  0  0  0  0
    1.3038   -0.3170   -3.7838 C   0  0  0  0  0  0  0  0  0  0  0  0
   -0.0778   -1.6937   -2.2811 C   0  0  0  0  0  0  0  0  0  0  0  0
   -1.0587    0.4276   -3.4340 C   0  0  0  0  0  0  0  0  0  0  0  0
   -2.2545    0.8401   -2.5610 C   0  0  0  0  0  0  0  0  0  0  0  0
   -2.8232   -0.3162   -1.9398 O   0  0  0  0  0  0  0  0  0  0  0  0
   -3.7080   -0.0609   -0.9068 C   0  0  0  0  0  0  0  0  0  0  0  0
   -3.9099   -1.0842    0.0348 C   0  0  0  0  0  0  0  0  0  0  0  0
   -4.7833   -0.9624    1.1184 C   0  0  0  0  0  0  0  0  0  0  0  0
   -5.5130    0.2206    1.2956 C   0  0  0  0  0  0  0  0  0  0  0  0
   -5.3512    1.2673    0.3670 C   0  0  0  0  0  0  0  0  0  0  0  0
   -4.4668    1.0992   -0.6991 C   0  0  0  0  0  0  0  0  0  0  0  0
   -4.4759    2.2237   -1.4748 O   0  0  0  0  0  0  0  0  0  0  0  0
   -5.3420    3.1030   -0.9134 C   0  0  0  0  0  0  0  0  0  0  0  0
   -5.9061    2.5671    0.2189 C   0  0  0  0  0  0  0  0  0  0  0  0
   -4.9185   -2.0727    2.0499 C   0  0  0  0  0  0  0  0  0  0  0  0
   -4.1985   -3.1836    1.8693 C   0  0  0  0  0  0  0  0  0  0  0  0
   -3.2550   -3.3393    0.7505 C   0  0  0  0  0  0  0  0  0  0  0  0
   -2.5914   -4.3617    0.6277 O   0  0  0  0  0  0  0  0  0  0  0  0
   -3.1611   -2.2773   -0.1345 O   0  0  0  0  0  0  0  0  0  0  0  0
   -1.5520   -0.4165   -4.4924 O   0  0  0  0  0  0  0  0  0  0  0  0
   -1.0805    3.1001    1.6656 H   0  0  0  0  0  0  0  0  0  0  0  0
   -0.3241    1.6144    2.2478 H   0  0  0  0  0  0  0  0  0  0  0  0
   -1.8115    1.5414    1.2780 H   0  0  0  0  0  0  0  0  0  0  0  0
    0.2137    4.0637   -0.0742 H   0  0  0  0  0  0  0  0  0  0  0  0
    1.0158    3.0162   -1.3683 H   0  0  0  0  0  0  0  0  0  0  0  0
   -0.7438    0.0247   -0.3642 H   0  0  0  0  0  0  0  0  0  0  0  0
    0.7473   -0.3760    1.5228 H   0  0  0  0  0  0  0  0  0  0  0  0
    1.3868   -1.2204    0.0766 H   0  0  0  0  0  0  0  0  0  0  0  0
    6.5027   -1.6424    3.3896 H   0  0  0  0  0  0  0  0  0  0  0  0
    1.9271   -4.0713    3.0277 H   0  0  0  0  0  0  0  0  0  0  0  0
    4.5378   -3.8811    3.9060 H   0  0  0  0  0  0  0  0  0  0  0  0
    7.8531    0.3781    2.7588 H   0  0  0  0  0  0  0  0  0  0  0  0
    7.9711    2.5481    1.5954 H   0  0  0  0  0  0  0  0  0  0  0  0
    1.5618    0.6828   -4.1528 H   0  0  0  0  0  0  0  0  0  0  0  0
    2.2211   -0.7217   -3.3387 H   0  0  0  0  0  0  0  0  0  0  0  0
    1.0335   -0.9434   -4.6402 H   0  0  0  0  0  0  0  0  0  0  0  0
   -0.4144   -2.3230   -3.1118 H   0  0  0  0  0  0  0  0  0  0  0  0
    0.8413   -2.1411   -1.8871 H   0  0  0  0  0  0  0  0  0  0  0  0
   -0.8210   -1.7728   -1.4866 H   0  0  0  0  0  0  0  0  0  0  0  0
   -0.7081    1.3503   -3.9143 H   0  0  0  0  0  0  0  0  0  0  0  0
   -3.0145    1.2758   -3.2208 H   0  0  0  0  0  0  0  0  0  0  0  0
   -1.9461    1.5847   -1.8235 H   0  0  0  0  0  0  0  0  0  0  0  0
   -6.1990    0.3388    2.1297 H   0  0  0  0  0  0  0  0  0  0  0  0
   -5.4468    4.0483   -1.4283 H   0  0  0  0  0  0  0  0  0  0  0  0
   -6.6312    3.0514    0.8575 H   0  0  0  0  0  0  0  0  0  0  0  0
   -5.6065   -1.9841    2.8840 H   0  0  0  0  0  0  0  0  0  0  0  0
   -4.2725   -4.0287    2.5430 H   0  0  0  0  0  0  0  0  0  0  0  0
   -2.1426   -1.0691   -4.0701 H   0  0  0  0  0  0  0  0  0  0  0  0
  1  2  1  0
  2  3  2  0
  2  4  1  0
  4  5  1  0
  5  6  1  0
  6  7  1  0
  7  8  1  0
  8  9  2  0
  9 10  1  0
 10 11  2  0
 11 12  1  0
 12 13  1  0
 13 14  1  0
 14 15  2  0
  9 16  1  0
 16 17  2  0
 17 18  1  0
 18 19  2  0
 18 20  1  0
  4 21  1  0
 21 22  1  0
 22 23  1  0
 22 24  1  0
 22 25  1  0
 25 26  1  0
 26 27  1  0
 27 28  1  0
 28 29  1  0
 29 30  2  0
 30 31  1  0
 31 32  2  0
 32 33  1  0
 33 34  1  0
 34 35  1  0
 35 36  2  0
 30 37  1  0
 37 38  2  0
 38 39  1  0
 39 40  2  0
 39 41  1  0
 25 42  1  0
 12  7  2  0
 20  8  1  0
 15 11  1  0
 33 28  2  0
 41 29  1  0
 36 32  1  0
  1 43  1  0
  1 44  1  0
  1 45  1  0
  3 46  1  0
  3 47  1  0
  4 48  1  0
  5 49  1  0
  5 50  1  0
 10 51  1  0
 14 52  1  0
 15 53  1  0
 16 54  1  0
 17 55  1  0
 23 56  1  0
 23 57  1  0
 23 58  1  0
 24 59  1  0
 24 60  1  0
 24 61  1  0
 25 62  1  0
 26 63  1  0
 26 64  1  0
 31 65  1  0
 35 66  1  0
 36 67  1  0
 37 68  1  0
 38 69  1  0
 42 70  1  0
M  END
>  <Name>  (763) 
Rivulobirin A

>  <PubChem ID>  (763) 
10030966

>  <CDB ID>  (763) 
CDB0763

>  <Smiles>  (763) 
CC(=C)C(COC1=C2C(=CC3=C1OC=C3)C=CC(=O)O2)OC(C)(C)C(COC4=C5C(=CC6=C4OC=C6)C=CC(=O)O5)O

>  <Chemical class>  (763) 
Biscoumarins

>  <Natural source>  (763) 
Pleurospermum rivulorum

>  <Molecular Formula>  (763) 
C32H28O10

>  <InChI-Key>  (763) 
AVODUFXCUYKMAY-UHFFFAOYSA-N

>  <Total Molweight>  (763) 
572.564

>  <cLogP>  (763) 
4.908

>  <cLogS>  (763) 
-7.7

>  <H-Acceptors>  (763) 
10

>  <H-Donors>  (763) 
1

>  <Rotatable Bonds>  (763) 
10

>  <Polar Surface Area>  (763) 
126.8

$$$$
CDB0764
     RDKit          3D

 73 78  0  0  0  0  0  0  0  0999 V2000
   -1.4169   -1.5665    1.7208 C   0  0  0  0  0  0  0  0  0  0  0  0
   -0.4655   -0.3910    1.4579 C   0  0  0  0  0  0  0  0  0  0  0  0
   -0.8343    0.3194    0.1453 C   0  0  0  0  0  0  0  0  0  0  0  0
   -0.4653    0.5740    2.6917 C   0  0  0  0  0  0  0  0  0  0  0  0
   -1.8104    1.1548    3.1615 C   0  0  0  0  0  0  0  0  0  0  0  0
   -2.4922    1.8080    2.0950 O   0  0  0  0  0  0  0  0  0  0  0  0
   -3.6899    2.4284    2.3972 C   0  0  0  0  0  0  0  0  0  0  0  0
   -4.3234    3.1198    1.3489 C   0  0  0  0  0  0  0  0  0  0  0  0
   -5.5353    3.7977    1.5025 C   0  0  0  0  0  0  0  0  0  0  0  0
   -6.1766    3.8027    2.7479 C   0  0  0  0  0  0  0  0  0  0  0  0
   -5.5825    3.1150    3.8241 C   0  0  0  0  0  0  0  0  0  0  0  0
   -4.3699    2.4527    3.6233 C   0  0  0  0  0  0  0  0  0  0  0  0
   -3.9867    1.8546    4.7918 O   0  0  0  0  0  0  0  0  0  0  0  0
   -4.9294    2.1322    5.7258 C   0  0  0  0  0  0  0  0  0  0  0  0
   -5.9305    2.9019    5.1855 C   0  0  0  0  0  0  0  0  0  0  0  0
   -6.1126    4.4904    0.3599 C   0  0  0  0  0  0  0  0  0  0  0  0
   -5.4848    4.4646   -0.8191 C   0  0  0  0  0  0  0  0  0  0  0  0
   -4.2122    3.7527   -1.0216 C   0  0  0  0  0  0  0  0  0  0  0  0
   -3.6719    3.7412   -2.1215 O   0  0  0  0  0  0  0  0  0  0  0  0
   -3.6797    3.1089    0.0830 O   0  0  0  0  0  0  0  0  0  0  0  0
    0.4649    1.6499    2.4535 O   0  0  0  0  0  0  0  0  0  0  0  0
    0.9174   -0.8371    1.4075 O   0  0  0  0  0  0  0  0  0  0  0  0
    1.3152   -1.7713    0.3846 C   0  0  0  0  0  0  0  0  0  0  0  0
    2.2414   -1.0230   -0.5956 C   0  0  0  0  0  0  0  0  0  0  0  0
    2.3630   -1.7760   -1.7999 O   0  0  0  0  0  0  0  0  0  0  0  0
    3.1788   -1.2564   -2.7879 C   0  0  0  0  0  0  0  0  0  0  0  0
    3.3412   -2.0386   -3.9450 C   0  0  0  0  0  0  0  0  0  0  0  0
    4.1268   -1.6444   -5.0306 C   0  0  0  0  0  0  0  0  0  0  0  0
    4.7971   -0.4149   -4.9937 C   0  0  0  0  0  0  0  0  0  0  0  0
    4.6633    0.4015   -3.8534 C   0  0  0  0  0  0  0  0  0  0  0  0
    3.8677   -0.0354   -2.7927 C   0  0  0  0  0  0  0  0  0  0  0  0
    3.8825    0.9063   -1.8024 O   0  0  0  0  0  0  0  0  0  0  0  0
    4.6674    1.9304   -2.2187 C   0  0  0  0  0  0  0  0  0  0  0  0
    5.1731    1.6714   -3.4694 C   0  0  0  0  0  0  0  0  0  0  0  0
    4.2335   -2.5228   -6.1864 C   0  0  0  0  0  0  0  0  0  0  0  0
    3.5857   -3.6913   -6.1953 C   0  0  0  0  0  0  0  0  0  0  0  0
    2.7531   -4.1415   -5.0679 C   0  0  0  0  0  0  0  0  0  0  0  0
    2.1768   -5.2221   -5.1073 O   0  0  0  0  0  0  0  0  0  0  0  0
    2.6647   -3.2865   -3.9815 O   0  0  0  0  0  0  0  0  0  0  0  0
    1.9825   -3.0142    1.0703 C   0  0  0  0  0  0  0  0  0  0  0  0
    2.5541   -4.0268    0.0725 C   0  0  0  0  0  0  0  0  0  0  0  0
    3.0646   -2.6237    2.0844 C   0  0  0  0  0  0  0  0  0  0  0  0
    0.9751   -3.7166    1.8296 O   0  0  0  0  0  0  0  0  0  0  0  0
   -1.3991   -2.2997    0.9091 H   0  0  0  0  0  0  0  0  0  0  0  0
   -2.4542   -1.2324    1.8235 H   0  0  0  0  0  0  0  0  0  0  0  0
   -1.1324   -2.0997    2.6343 H   0  0  0  0  0  0  0  0  0  0  0  0
   -1.8799    0.6346    0.1227 H   0  0  0  0  0  0  0  0  0  0  0  0
   -0.2001    1.1952   -0.0262 H   0  0  0  0  0  0  0  0  0  0  0  0
   -0.6960   -0.3343   -0.7219 H   0  0  0  0  0  0  0  0  0  0  0  0
   -0.0407    0.0296    3.5464 H   0  0  0  0  0  0  0  0  0  0  0  0
   -1.6047    1.8841    3.9546 H   0  0  0  0  0  0  0  0  0  0  0  0
   -2.4305    0.3414    3.5536 H   0  0  0  0  0  0  0  0  0  0  0  0
   -7.1192    4.3228    2.8925 H   0  0  0  0  0  0  0  0  0  0  0  0
   -4.7489    1.7191    6.7087 H   0  0  0  0  0  0  0  0  0  0  0  0
   -6.8047    3.2653    5.7068 H   0  0  0  0  0  0  0  0  0  0  0  0
   -7.0500    5.0224    0.4807 H   0  0  0  0  0  0  0  0  0  0  0  0
   -5.8845    4.9682   -1.6908 H   0  0  0  0  0  0  0  0  0  0  0  0
    1.2546    1.2118    2.0807 H   0  0  0  0  0  0  0  0  0  0  0  0
    0.4427   -2.1360   -0.1681 H   0  0  0  0  0  0  0  0  0  0  0  0
    3.2221   -0.8605   -0.1358 H   0  0  0  0  0  0  0  0  0  0  0  0
    1.8010   -0.0455   -0.8215 H   0  0  0  0  0  0  0  0  0  0  0  0
    5.4125   -0.0849   -5.8259 H   0  0  0  0  0  0  0  0  0  0  0  0
    4.7648    2.7556   -1.5265 H   0  0  0  0  0  0  0  0  0  0  0  0
    5.8264    2.3186   -4.0371 H   0  0  0  0  0  0  0  0  0  0  0  0
    4.8405   -2.2155   -7.0313 H   0  0  0  0  0  0  0  0  0  0  0  0
    3.6419   -4.3697   -7.0379 H   0  0  0  0  0  0  0  0  0  0  0  0
    2.8281   -4.9592    0.5805 H   0  0  0  0  0  0  0  0  0  0  0  0
    1.8058   -4.2978   -0.6808 H   0  0  0  0  0  0  0  0  0  0  0  0
    3.4465   -3.6491   -0.4351 H   0  0  0  0  0  0  0  0  0  0  0  0
    2.6597   -1.9807    2.8736 H   0  0  0  0  0  0  0  0  0  0  0  0
    3.4540   -3.5134    2.5939 H   0  0  0  0  0  0  0  0  0  0  0  0
    3.9071   -2.1101    1.6128 H   0  0  0  0  0  0  0  0  0  0  0  0
    0.3172   -4.0591    1.2008 H   0  0  0  0  0  0  0  0  0  0  0  0
  1  2  1  0
  2  3  1  0
  2  4  1  0
  4  5  1  0
  5  6  1  0
  6  7  1  0
  7  8  1  0
  8  9  2  0
  9 10  1  0
 10 11  2  0
 11 12  1  0
 12 13  1  0
 13 14  1  0
 14 15  2  0
  9 16  1  0
 16 17  2  0
 17 18  1  0
 18 19  2  0
 18 20  1  0
  4 21  1  0
  2 22  1  0
 22 23  1  0
 23 24  1  0
 24 25  1  0
 25 26  1  0
 26 27  1  0
 27 28  2  0
 28 29  1  0
 29 30  2  0
 30 31  1  0
 31 32  1  0
 32 33  1  0
 33 34  2  0
 28 35  1  0
 35 36  2  0
 36 37  1  0
 37 38  2  0
 37 39  1  0
 23 40  1  0
 40 41  1  0
 40 42  1  0
 40 43  1  0
 12  7  2  0
 20  8  1  0
 15 11  1  0
 31 26  2  0
 39 27  1  0
 34 30  1  0
  1 44  1  0
  1 45  1  0
  1 46  1  0
  3 47  1  0
  3 48  1  0
  3 49  1  0
  4 50  1  0
  5 51  1  0
  5 52  1  0
 10 53  1  0
 14 54  1  0
 15 55  1  0
 16 56  1  0
 17 57  1  0
 21 58  1  0
 23 59  1  0
 24 60  1  0
 24 61  1  0
 29 62  1  0
 33 63  1  0
 34 64  1  0
 35 65  1  0
 36 66  1  0
 41 67  1  0
 41 68  1  0
 41 69  1  0
 42 70  1  0
 42 71  1  0
 42 72  1  0
 43 73  1  0
M  END
>  <Name>  (764) 
Rivulobirin E

>  <PubChem ID>  (764) 
10674926

>  <CDB ID>  (764) 
CDB0764

>  <Smiles>  (764) 
CC(C)(C(COC1=C2C(=CC3=C1OC=C3)C=CC(=O)O2)O)OC(COC4=C5C(=CC6=C4OC=C6)C=CC(=O)O5)C(C)(C)O

>  <Chemical class>  (764) 
Biscoumarins

>  <Natural source>  (764) 
Pleurospermum rivulorum

>  <Molecular Formula>  (764) 
C32H30O11

>  <InChI-Key>  (764) 
OIZNBPDWHFCLKY-UHFFFAOYSA-N

>  <Total Molweight>  (764) 
590.579

>  <cLogP>  (764) 
3.8459

>  <cLogS>  (764) 
-7.347

>  <H-Acceptors>  (764) 
11

>  <H-Donors>  (764) 
2

>  <Rotatable Bonds>  (764) 
10

>  <Polar Surface Area>  (764) 
147.03

$$$$
CDB0765
     RDKit          3D

 69 75  0  0  0  0  0  0  0  0999 V2000
   -6.6182    1.1922    1.7975 C   0  0  0  0  0  0  0  0  0  0  0  0
   -5.2021    0.7374    1.5603 C   0  0  0  0  0  0  0  0  0  0  0  0
   -4.7651   -0.4312    2.0709 C   0  0  0  0  0  0  0  0  0  0  0  0
   -3.4042   -1.0550    1.9324 C   0  0  0  0  0  0  0  0  0  0  0  0
   -3.4952   -2.3411    1.3043 O   0  0  0  0  0  0  0  0  0  0  0  0
   -3.6753   -2.2386   -0.0542 C   0  0  0  0  0  0  0  0  0  0  0  0
   -4.8961   -2.5902   -0.6364 C   0  0  0  0  0  0  0  0  0  0  0  0
   -5.1494   -2.5337   -2.0029 C   0  0  0  0  0  0  0  0  0  0  0  0
   -4.1203   -2.1112   -2.8640 C   0  0  0  0  0  0  0  0  0  0  0  0
   -2.8720   -1.7669   -2.3161 C   0  0  0  0  0  0  0  0  0  0  0  0
   -2.6534   -1.8373   -0.9297 C   0  0  0  0  0  0  0  0  0  0  0  0
   -1.4222   -1.5785   -0.3777 O   0  0  0  0  0  0  0  0  0  0  0  0
   -0.5463   -0.7305   -1.1311 C   0  0  0  0  0  0  0  0  0  0  0  0
   -0.6930   -0.8412   -2.6168 C   0  0  0  0  0  0  0  0  0  0  0  0
   -1.7860   -1.3490   -3.1956 C   0  0  0  0  0  0  0  0  0  0  0  0
    0.8090   -1.0801   -0.8073 O   0  0  0  0  0  0  0  0  0  0  0  0
    1.1203   -0.2018    0.2798 C   0  0  0  0  0  0  0  0  0  0  0  0
    0.4460    1.1005   -0.1447 C   0  0  0  0  0  0  0  0  0  0  0  0
   -0.7749    0.6412   -0.7550 O   0  0  0  0  0  0  0  0  0  0  0  0
    1.1743    1.9373   -1.1989 C   0  0  0  0  0  0  0  0  0  0  0  0
    0.0882    1.9771    1.0530 C   0  0  0  0  0  0  0  0  0  0  0  0
    2.6157   -0.1997    0.5996 C   0  0  0  0  0  0  0  0  0  0  0  0
    3.3915    0.2781   -0.5038 O   0  0  0  0  0  0  0  0  0  0  0  0
    4.7245    0.2900   -0.1740 C   0  0  0  0  0  0  0  0  0  0  0  0
    5.3513    1.4634    0.2594 C   0  0  0  0  0  0  0  0  0  0  0  0
    6.7171    1.5186    0.5475 C   0  0  0  0  0  0  0  0  0  0  0  0
    7.5136    0.3714    0.3962 C   0  0  0  0  0  0  0  0  0  0  0  0
    6.9131   -0.8230   -0.0518 C   0  0  0  0  0  0  0  0  0  0  0  0
    5.5480   -0.8265   -0.3266 C   0  0  0  0  0  0  0  0  0  0  0  0
    5.1592   -2.0631   -0.7491 O   0  0  0  0  0  0  0  0  0  0  0  0
    6.2647   -2.8512   -0.7475 C   0  0  0  0  0  0  0  0  0  0  0  0
    7.3657   -2.1412   -0.3273 C   0  0  0  0  0  0  0  0  0  0  0  0
    7.2916    2.7779    0.9987 C   0  0  0  0  0  0  0  0  0  0  0  0
    6.5089    3.8519    1.1391 C   0  0  0  0  0  0  0  0  0  0  0  0
    5.0642    3.8192    0.8573 C   0  0  0  0  0  0  0  0  0  0  0  0
    4.3706    4.8164    1.0165 O   0  0  0  0  0  0  0  0  0  0  0  0
    4.5422    2.6130    0.4182 O   0  0  0  0  0  0  0  0  0  0  0  0
   -6.4953   -2.9570   -2.1674 C   0  0  0  0  0  0  0  0  0  0  0  0
   -6.9693   -3.2433   -0.9085 C   0  0  0  0  0  0  0  0  0  0  0  0
   -6.0086   -3.0257    0.0254 O   0  0  0  0  0  0  0  0  0  0  0  0
   -4.3857    1.6744    0.7131 C   0  0  0  0  0  0  0  0  0  0  0  0
   -6.6243    2.1591    2.3112 H   0  0  0  0  0  0  0  0  0  0  0  0
   -7.1462    1.3002    0.8444 H   0  0  0  0  0  0  0  0  0  0  0  0
   -7.1850    0.4855    2.4129 H   0  0  0  0  0  0  0  0  0  0  0  0
   -5.4583   -1.0399    2.6505 H   0  0  0  0  0  0  0  0  0  0  0  0
   -2.6682   -0.4111    1.4456 H   0  0  0  0  0  0  0  0  0  0  0  0
   -3.0153   -1.2326    2.9419 H   0  0  0  0  0  0  0  0  0  0  0  0
   -4.2947   -2.0607   -3.9346 H   0  0  0  0  0  0  0  0  0  0  0  0
    0.1278   -0.4770   -3.2233 H   0  0  0  0  0  0  0  0  0  0  0  0
   -1.8912   -1.4184   -4.2713 H   0  0  0  0  0  0  0  0  0  0  0  0
    0.6063   -0.6130    1.1609 H   0  0  0  0  0  0  0  0  0  0  0  0
    2.0541    2.4385   -0.7865 H   0  0  0  0  0  0  0  0  0  0  0  0
    0.5085    2.7106   -1.6009 H   0  0  0  0  0  0  0  0  0  0  0  0
    1.4834    1.3304   -2.0562 H   0  0  0  0  0  0  0  0  0  0  0  0
   -0.5336    1.4279    1.7693 H   0  0  0  0  0  0  0  0  0  0  0  0
   -0.5042    2.8441    0.7388 H   0  0  0  0  0  0  0  0  0  0  0  0
    0.9831    2.3357    1.5713 H   0  0  0  0  0  0  0  0  0  0  0  0
    2.9194   -1.2291    0.8291 H   0  0  0  0  0  0  0  0  0  0  0  0
    2.7927    0.4290    1.4814 H   0  0  0  0  0  0  0  0  0  0  0  0
    8.5779    0.3935    0.6126 H   0  0  0  0  0  0  0  0  0  0  0  0
    6.1075   -3.8726   -1.0662 H   0  0  0  0  0  0  0  0  0  0  0  0
    8.3711   -2.5263   -0.2348 H   0  0  0  0  0  0  0  0  0  0  0  0
    8.3536    2.8291    1.2140 H   0  0  0  0  0  0  0  0  0  0  0  0
    6.9012    4.8053    1.4720 H   0  0  0  0  0  0  0  0  0  0  0  0
   -7.0501   -3.0440   -3.0904 H   0  0  0  0  0  0  0  0  0  0  0  0
   -7.9174   -3.5945   -0.5262 H   0  0  0  0  0  0  0  0  0  0  0  0
   -3.3717    1.3205    0.5199 H   0  0  0  0  0  0  0  0  0  0  0  0
   -4.3048    2.6498    1.2041 H   0  0  0  0  0  0  0  0  0  0  0  0
   -4.8686    1.8171   -0.2594 H   0  0  0  0  0  0  0  0  0  0  0  0
  1  2  1  0
  2  3  2  3
  3  4  1  0
  4  5  1  0
  5  6  1  0
  6  7  2  0
  7  8  1  0
  8  9  2  0
  9 10  1  0
 10 11  2  0
 11 12  1  0
 12 13  1  0
 13 14  1  0
 14 15  2  0
 13 16  1  0
 16 17  1  0
 17 18  1  0
 18 19  1  0
 18 20  1  0
 18 21  1  0
 17 22  1  0
 22 23  1  0
 23 24  1  0
 24 25  1  0
 25 26  2  0
 26 27  1  0
 27 28  2  0
 28 29  1  0
 29 30  1  0
 30 31  1  0
 31 32  2  0
 26 33  1  0
 33 34  2  0
 34 35  1  0
 35 36  2  0
 35 37  1  0
  8 38  1  0
 38 39  2  0
 39 40  1  0
  2 41  1  0
 11  6  1  0
 40  7  1  0
 15 10  1  0
 19 13  1  0
 29 24  2  0
 37 25  1  0
 32 28  1  0
  1 42  1  0
  1 43  1  0
  1 44  1  0
  3 45  1  0
  4 46  1  0
  4 47  1  0
  9 48  1  0
 14 49  1  0
 15 50  1  0
 17 51  1  0
 20 52  1  0
 20 53  1  0
 20 54  1  0
 21 55  1  0
 21 56  1  0
 21 57  1  0
 22 58  1  0
 22 59  1  0
 27 60  1  0
 31 61  1  0
 32 62  1  0
 33 63  1  0
 34 64  1  0
 38 65  1  0
 39 66  1  0
 41 67  1  0
 41 68  1  0
 41 69  1  0
M  END
>  <Name>  (765) 
Rivulobirin F

>  <PubChem ID>  (765) 
101245349

>  <CDB ID>  (765) 
CDB0765

>  <Smiles>  (765) 
CC(=CCOC1=C2C(=CC3=C1OC4(C=C3)OC(C(O4)(C)C)COC5=C6C(=CC7=C5OC=C7)C=CC(=O)O6)C=CO2)C

>  <Chemical class>  (765) 
Biscoumarins

>  <Natural source>  (765) 
Pleurospermum rivulorum

>  <Molecular Formula>  (765) 
C32H28O9

>  <InChI-Key>  (765) 
QXTLFIIWXJPGQM-UHFFFAOYSA-N

>  <Total Molweight>  (765) 
556.565

>  <cLogP>  (765) 
6.7411

>  <cLogS>  (765) 
-7.932

>  <H-Acceptors>  (765) 
9

>  <H-Donors>  (765) 
0

>  <Rotatable Bonds>  (765) 
6

>  <Polar Surface Area>  (765) 
98.73

$$$$
CDB0766
     RDKit          3D

 69 75  0  0  0  0  0  0  0  0999 V2000
   -6.6182    1.1922    1.7975 C   0  0  0  0  0  0  0  0  0  0  0  0
   -5.2021    0.7374    1.5603 C   0  0  0  0  0  0  0  0  0  0  0  0
   -4.7651   -0.4312    2.0709 C   0  0  0  0  0  0  0  0  0  0  0  0
   -3.4042   -1.0550    1.9324 C   0  0  0  0  0  0  0  0  0  0  0  0
   -3.4952   -2.3411    1.3043 O   0  0  0  0  0  0  0  0  0  0  0  0
   -3.6753   -2.2386   -0.0542 C   0  0  0  0  0  0  0  0  0  0  0  0
   -4.8961   -2.5902   -0.6364 C   0  0  0  0  0  0  0  0  0  0  0  0
   -5.1494   -2.5337   -2.0029 C   0  0  0  0  0  0  0  0  0  0  0  0
   -4.1203   -2.1112   -2.8640 C   0  0  0  0  0  0  0  0  0  0  0  0
   -2.8720   -1.7669   -2.3161 C   0  0  0  0  0  0  0  0  0  0  0  0
   -2.6534   -1.8373   -0.9297 C   0  0  0  0  0  0  0  0  0  0  0  0
   -1.4222   -1.5785   -0.3777 O   0  0  0  0  0  0  0  0  0  0  0  0
   -0.5463   -0.7305   -1.1311 C   0  0  0  0  0  0  0  0  0  0  0  0
   -0.6930   -0.8412   -2.6168 C   0  0  0  0  0  0  0  0  0  0  0  0
   -1.7860   -1.3490   -3.1956 C   0  0  0  0  0  0  0  0  0  0  0  0
    0.8090   -1.0801   -0.8073 O   0  0  0  0  0  0  0  0  0  0  0  0
    1.1203   -0.2018    0.2798 C   0  0  0  0  0  0  0  0  0  0  0  0
    0.4460    1.1005   -0.1447 C   0  0  0  0  0  0  0  0  0  0  0  0
   -0.7749    0.6412   -0.7550 O   0  0  0  0  0  0  0  0  0  0  0  0
    1.1743    1.9373   -1.1989 C   0  0  0  0  0  0  0  0  0  0  0  0
    0.0882    1.9771    1.0530 C   0  0  0  0  0  0  0  0  0  0  0  0
    2.6157   -0.1997    0.5996 C   0  0  0  0  0  0  0  0  0  0  0  0
    3.3915    0.2781   -0.5038 O   0  0  0  0  0  0  0  0  0  0  0  0
    4.7245    0.2900   -0.1740 C   0  0  0  0  0  0  0  0  0  0  0  0
    5.3513    1.4634    0.2594 C   0  0  0  0  0  0  0  0  0  0  0  0
    6.7171    1.5186    0.5475 C   0  0  0  0  0  0  0  0  0  0  0  0
    7.5136    0.3714    0.3962 C   0  0  0  0  0  0  0  0  0  0  0  0
    6.9131   -0.8230   -0.0518 C   0  0  0  0  0  0  0  0  0  0  0  0
    5.5480   -0.8265   -0.3266 C   0  0  0  0  0  0  0  0  0  0  0  0
    5.1592   -2.0631   -0.7491 O   0  0  0  0  0  0  0  0  0  0  0  0
    6.2647   -2.8512   -0.7475 C   0  0  0  0  0  0  0  0  0  0  0  0
    7.3657   -2.1412   -0.3273 C   0  0  0  0  0  0  0  0  0  0  0  0
    7.2916    2.7779    0.9987 C   0  0  0  0  0  0  0  0  0  0  0  0
    6.5089    3.8519    1.1391 C   0  0  0  0  0  0  0  0  0  0  0  0
    5.0642    3.8192    0.8573 C   0  0  0  0  0  0  0  0  0  0  0  0
    4.3706    4.8164    1.0165 O   0  0  0  0  0  0  0  0  0  0  0  0
    4.5422    2.6130    0.4182 O   0  0  0  0  0  0  0  0  0  0  0  0
   -6.4953   -2.9570   -2.1674 C   0  0  0  0  0  0  0  0  0  0  0  0
   -6.9693   -3.2433   -0.9085 C   0  0  0  0  0  0  0  0  0  0  0  0
   -6.0086   -3.0257    0.0254 O   0  0  0  0  0  0  0  0  0  0  0  0
   -4.3857    1.6744    0.7131 C   0  0  0  0  0  0  0  0  0  0  0  0
   -6.6243    2.1591    2.3112 H   0  0  0  0  0  0  0  0  0  0  0  0
   -7.1462    1.3002    0.8444 H   0  0  0  0  0  0  0  0  0  0  0  0
   -7.1850    0.4855    2.4129 H   0  0  0  0  0  0  0  0  0  0  0  0
   -5.4583   -1.0399    2.6505 H   0  0  0  0  0  0  0  0  0  0  0  0
   -2.6682   -0.4111    1.4456 H   0  0  0  0  0  0  0  0  0  0  0  0
   -3.0153   -1.2326    2.9419 H   0  0  0  0  0  0  0  0  0  0  0  0
   -4.2947   -2.0607   -3.9346 H   0  0  0  0  0  0  0  0  0  0  0  0
    0.1278   -0.4770   -3.2233 H   0  0  0  0  0  0  0  0  0  0  0  0
   -1.8912   -1.4184   -4.2713 H   0  0  0  0  0  0  0  0  0  0  0  0
    0.6063   -0.6130    1.1609 H   0  0  0  0  0  0  0  0  0  0  0  0
    2.0541    2.4385   -0.7865 H   0  0  0  0  0  0  0  0  0  0  0  0
    0.5085    2.7106   -1.6009 H   0  0  0  0  0  0  0  0  0  0  0  0
    1.4834    1.3304   -2.0562 H   0  0  0  0  0  0  0  0  0  0  0  0
   -0.5336    1.4279    1.7693 H   0  0  0  0  0  0  0  0  0  0  0  0
   -0.5042    2.8441    0.7388 H   0  0  0  0  0  0  0  0  0  0  0  0
    0.9831    2.3357    1.5713 H   0  0  0  0  0  0  0  0  0  0  0  0
    2.9194   -1.2291    0.8291 H   0  0  0  0  0  0  0  0  0  0  0  0
    2.7927    0.4290    1.4814 H   0  0  0  0  0  0  0  0  0  0  0  0
    8.5779    0.3935    0.6126 H   0  0  0  0  0  0  0  0  0  0  0  0
    6.1075   -3.8726   -1.0662 H   0  0  0  0  0  0  0  0  0  0  0  0
    8.3711   -2.5263   -0.2348 H   0  0  0  0  0  0  0  0  0  0  0  0
    8.3536    2.8291    1.2140 H   0  0  0  0  0  0  0  0  0  0  0  0
    6.9012    4.8053    1.4720 H   0  0  0  0  0  0  0  0  0  0  0  0
   -7.0501   -3.0440   -3.0904 H   0  0  0  0  0  0  0  0  0  0  0  0
   -7.9174   -3.5945   -0.5262 H   0  0  0  0  0  0  0  0  0  0  0  0
   -3.3717    1.3205    0.5199 H   0  0  0  0  0  0  0  0  0  0  0  0
   -4.3048    2.6498    1.2041 H   0  0  0  0  0  0  0  0  0  0  0  0
   -4.8686    1.8171   -0.2594 H   0  0  0  0  0  0  0  0  0  0  0  0
  1  2  1  0
  2  3  2  3
  3  4  1  0
  4  5  1  0
  5  6  1  0
  6  7  2  0
  7  8  1  0
  8  9  2  0
  9 10  1  0
 10 11  2  0
 11 12  1  0
 12 13  1  0
 13 14  1  0
 14 15  2  0
 13 16  1  0
 16 17  1  0
 17 18  1  0
 18 19  1  0
 18 20  1  0
 18 21  1  0
 17 22  1  0
 22 23  1  0
 23 24  1  0
 24 25  1  0
 25 26  2  0
 26 27  1  0
 27 28  2  0
 28 29  1  0
 29 30  1  0
 30 31  1  0
 31 32  2  0
 26 33  1  0
 33 34  2  0
 34 35  1  0
 35 36  2  0
 35 37  1  0
  8 38  1  0
 38 39  2  0
 39 40  1  0
  2 41  1  0
 11  6  1  0
 40  7  1  0
 15 10  1  0
 19 13  1  0
 29 24  2  0
 37 25  1  0
 32 28  1  0
  1 42  1  0
  1 43  1  0
  1 44  1  0
  3 45  1  0
  4 46  1  0
  4 47  1  0
  9 48  1  0
 14 49  1  0
 15 50  1  0
 17 51  1  0
 20 52  1  0
 20 53  1  0
 20 54  1  0
 21 55  1  0
 21 56  1  0
 21 57  1  0
 22 58  1  0
 22 59  1  0
 27 60  1  0
 31 61  1  0
 32 62  1  0
 33 63  1  0
 34 64  1  0
 38 65  1  0
 39 66  1  0
 41 67  1  0
 41 68  1  0
 41 69  1  0
M  END
>  <Name>  (766) 
Rivulobirin G

>  <PubChem ID>  (766) 
101245350

>  <CDB ID>  (766) 
CDB0766

>  <Smiles>  (766) 
CC(=CCOC1=C2C(=CC3=C1OC4(C=C3)OC(C(O4)(C)C)COC5=C6C(=CC7=C5OC=C7)C=CC(=O)O6)C=CO2)C

>  <Chemical class>  (766) 
Biscoumarins

>  <Natural source>  (766) 
Pleurospermum rivulorum

>  <Molecular Formula>  (766) 
C32H28O9

>  <InChI-Key>  (766) 
QXTLFIIWXJPGQM-UHFFFAOYSA-N

>  <Total Molweight>  (766) 
556.565

>  <cLogP>  (766) 
6.7411

>  <cLogS>  (766) 
-7.932

>  <H-Acceptors>  (766) 
9

>  <H-Donors>  (766) 
0

>  <Rotatable Bonds>  (766) 
6

>  <Polar Surface Area>  (766) 
98.73

$$$$
CDB0767
     RDKit          3D

 72 77  0  0  0  0  0  0  0  0999 V2000
   -3.6901    3.6034   -1.2647 C   0  0  0  0  0  0  0  0  0  0  0  0
   -2.9784    2.8704   -0.1182 C   0  0  0  0  0  0  0  0  0  0  0  0
   -1.4726    2.8024   -0.4299 C   0  0  0  0  0  0  0  0  0  0  0  0
   -0.8023    1.7907    0.4872 C   0  0  0  0  0  0  0  0  0  0  0  0
    0.7185    1.7291    0.3150 C   0  0  0  0  0  0  0  0  0  0  0  0
    1.2183    0.4310   -0.3325 C   0  0  0  0  0  0  0  0  0  0  0  0
    0.6063   -0.7069    0.2999 O   0  0  0  0  0  0  0  0  0  0  0  0
   -0.7647   -0.7105    0.2874 C   0  0  0  0  0  0  0  0  0  0  0  0
   -1.4939    0.4764    0.2879 C   0  0  0  0  0  0  0  0  0  0  0  0
   -2.8878    0.4375    0.1180 C   0  0  0  0  0  0  0  0  0  0  0  0
   -3.6011   -0.7929    0.0403 C   0  0  0  0  0  0  0  0  0  0  0  0
   -2.8188   -1.9660    0.1409 C   0  0  0  0  0  0  0  0  0  0  0  0
   -1.4195   -1.9431    0.2524 C   0  0  0  0  0  0  0  0  0  0  0  0
   -0.6834   -3.2048    0.3080 C   0  0  0  0  0  0  0  0  0  0  0  0
   -1.3279   -4.3729    0.2769 C   0  0  0  0  0  0  0  0  0  0  0  0
   -2.7893   -4.4449    0.1850 C   0  0  0  0  0  0  0  0  0  0  0  0
   -3.3714   -5.5224    0.1640 O   0  0  0  0  0  0  0  0  0  0  0  0
   -3.4569   -3.2315    0.1223 O   0  0  0  0  0  0  0  0  0  0  0  0
   -5.1482   -0.7854   -0.1366 C   0  0  0  0  0  0  0  0  0  0  0  0
   -5.8511   -2.1534   -0.3244 C   0  0  0  0  0  0  0  0  0  0  0  0
   -5.7780   -0.1844    1.1497 C   0  0  0  0  0  0  0  0  0  0  0  0
   -5.5761    0.0409   -1.3591 C   0  0  0  0  0  0  0  0  0  0  0  0
   -5.1113   -0.1155   -2.6085 C   0  0  0  0  0  0  0  0  0  0  0  0
   -3.6189    1.5905   -0.0026 O   0  0  0  0  0  0  0  0  0  0  0  0
    0.9826    0.3925   -1.8545 C   0  0  0  0  0  0  0  0  0  0  0  0
    2.7282    0.3504   -0.1201 C   0  0  0  0  0  0  0  0  0  0  0  0
    3.3805   -0.5838    0.5948 C   0  0  0  0  0  0  0  0  0  0  0  0
    4.8407   -0.6180    0.7912 C   0  0  0  0  0  0  0  0  0  0  0  0
    5.3835   -1.0313    2.0222 C   0  0  0  0  0  0  0  0  0  0  0  0
    6.7620   -1.0962    2.2185 C   0  0  0  0  0  0  0  0  0  0  0  0
    7.6033   -0.7561    1.1635 C   0  0  0  0  0  0  0  0  0  0  0  0
    7.1043   -0.3616   -0.0751 C   0  0  0  0  0  0  0  0  0  0  0  0
    5.7198   -0.2993   -0.2595 C   0  0  0  0  0  0  0  0  0  0  0  0
    8.0399   -0.0343   -1.1388 C   0  0  0  0  0  0  0  0  0  0  0  0
    9.3539   -0.1119   -0.9067 C   0  0  0  0  0  0  0  0  0  0  0  0
    9.9045   -0.5203    0.3976 C   0  0  0  0  0  0  0  0  0  0  0  0
   11.1155   -0.5763    0.5760 O   0  0  0  0  0  0  0  0  0  0  0  0
    8.9910   -0.8330    1.3954 O   0  0  0  0  0  0  0  0  0  0  0  0
    4.5404   -1.3699    3.0477 O   0  0  0  0  0  0  0  0  0  0  0  0
   -3.2578    3.6269    1.1895 C   0  0  0  0  0  0  0  0  0  0  0  0
   -3.3011    4.6180   -1.3996 H   0  0  0  0  0  0  0  0  0  0  0  0
   -4.7692    3.6657   -1.0816 H   0  0  0  0  0  0  0  0  0  0  0  0
   -3.5711    3.0572   -2.2076 H   0  0  0  0  0  0  0  0  0  0  0  0
   -1.3235    2.4971   -1.4749 H   0  0  0  0  0  0  0  0  0  0  0  0
   -1.0148    3.7935   -0.3218 H   0  0  0  0  0  0  0  0  0  0  0  0
   -0.9777    2.0927    1.5281 H   0  0  0  0  0  0  0  0  0  0  0  0
    1.1454    1.7903    1.3281 H   0  0  0  0  0  0  0  0  0  0  0  0
    1.0983    2.6134   -0.2129 H   0  0  0  0  0  0  0  0  0  0  0  0
    0.3991   -3.1748    0.3808 H   0  0  0  0  0  0  0  0  0  0  0  0
   -0.8038   -5.3191    0.3208 H   0  0  0  0  0  0  0  0  0  0  0  0
   -6.9283   -2.0260   -0.4975 H   0  0  0  0  0  0  0  0  0  0  0  0
   -5.4602   -2.7060   -1.1868 H   0  0  0  0  0  0  0  0  0  0  0  0
   -5.7610   -2.7836    0.5679 H   0  0  0  0  0  0  0  0  0  0  0  0
   -5.4985    0.8594    1.3221 H   0  0  0  0  0  0  0  0  0  0  0  0
   -5.4721   -0.7531    2.0365 H   0  0  0  0  0  0  0  0  0  0  0  0
   -6.8741   -0.2082    1.1055 H   0  0  0  0  0  0  0  0  0  0  0  0
   -6.3202    0.8163   -1.1855 H   0  0  0  0  0  0  0  0  0  0  0  0
   -5.4677    0.5157   -3.4158 H   0  0  0  0  0  0  0  0  0  0  0  0
   -4.3689   -0.8700   -2.8491 H   0  0  0  0  0  0  0  0  0  0  0  0
    1.4920    1.2188   -2.3634 H   0  0  0  0  0  0  0  0  0  0  0  0
    1.3486   -0.5506   -2.2788 H   0  0  0  0  0  0  0  0  0  0  0  0
   -0.0782    0.4495   -2.1170 H   0  0  0  0  0  0  0  0  0  0  0  0
    3.2972    1.1527   -0.5865 H   0  0  0  0  0  0  0  0  0  0  0  0
    2.8286   -1.3684    1.1093 H   0  0  0  0  0  0  0  0  0  0  0  0
    7.1891   -1.4064    3.1660 H   0  0  0  0  0  0  0  0  0  0  0  0
    5.3206   -0.0146   -1.2301 H   0  0  0  0  0  0  0  0  0  0  0  0
    7.6579    0.2680   -2.1077 H   0  0  0  0  0  0  0  0  0  0  0  0
   10.0838    0.1232   -1.6718 H   0  0  0  0  0  0  0  0  0  0  0  0
    5.0651   -1.6085    3.8293 H   0  0  0  0  0  0  0  0  0  0  0  0
   -2.8844    3.0800    2.0611 H   0  0  0  0  0  0  0  0  0  0  0  0
   -2.8076    4.6248    1.1833 H   0  0  0  0  0  0  0  0  0  0  0  0
   -4.3370    3.7380    1.3494 H   0  0  0  0  0  0  0  0  0  0  0  0
  1  2  1  0
  2  3  1  0
  3  4  1  0
  4  5  1  0
  5  6  1  0
  6  7  1  0
  7  8  1  0
  8  9  1  0
  9 10  2  0
 10 11  1  0
 11 12  2  0
 12 13  1  0
 13 14  1  0
 14 15  2  0
 15 16  1  0
 16 17  2  0
 16 18  1  0
 11 19  1  0
 19 20  1  0
 19 21  1  0
 19 22  1  0
 22 23  2  0
 10 24  1  0
  6 25  1  0
  6 26  1  0
 26 27  2  3
 27 28  1  0
 28 29  2  0
 29 30  1  0
 30 31  2  0
 31 32  1  0
 32 33  2  0
 32 34  1  0
 34 35  2  0
 35 36  1  0
 36 37  2  0
 36 38  1  0
 29 39  1  0
  2 40  1  0
 24  2  1  0
  9  4  1  0
 13  8  2  0
 18 12  1  0
 33 28  1  0
 38 31  1  0
  1 41  1  0
  1 42  1  0
  1 43  1  0
  3 44  1  0
  3 45  1  0
  4 46  1  0
  5 47  1  0
  5 48  1  0
 14 49  1  0
 15 50  1  0
 20 51  1  0
 20 52  1  0
 20 53  1  0
 21 54  1  0
 21 55  1  0
 21 56  1  0
 22 57  1  0
 23 58  1  0
 23 59  1  0
 25 60  1  0
 25 61  1  0
 25 62  1  0
 26 63  1  0
 27 64  1  0
 30 65  1  0
 33 66  1  0
 34 67  1  0
 35 68  1  0
 39 69  1  0
 40 70  1  0
 40 71  1  0
 40 72  1  0
M  END
>  <Name>  (767) 
Citrumarin-C

>  <PubChem ID>  (767) 
9984773

>  <CDB ID>  (767) 
CDB0767

>  <Smiles>  (767) 
CC1(CC2CC(OC3=C2C(=C(C4=C3C=CC(=O)O4)C(C)(C)C=C)O1)(C)C=CC5=C(C=C6C(=C5)C=CC(=O)O6)O)C

>  <Chemical class>  (767) 
Biscoumarins

>  <Natural source>  (767) 
Poncirus trifoliata, Citrus paradisi

>  <Molecular Formula>  (767) 
C33H32O7

>  <InChI-Key>  (767) 
ZPFUGLLYQXUCTE-UHFFFAOYSA-N

>  <Total Molweight>  (767) 
540.61

>  <cLogP>  (767) 
6.9483

>  <cLogS>  (767) 
-7.85

>  <H-Acceptors>  (767) 
7

>  <H-Donors>  (767) 
1

>  <Rotatable Bonds>  (767) 
4

>  <Polar Surface Area>  (767) 
91.29

$$$$
CDB0768
     RDKit          3D

 72 77  0  0  0  0  0  0  0  0999 V2000
   -3.6901    3.6034   -1.2647 C   0  0  0  0  0  0  0  0  0  0  0  0
   -2.9784    2.8704   -0.1182 C   0  0  0  0  0  0  0  0  0  0  0  0
   -1.4726    2.8024   -0.4299 C   0  0  0  0  0  0  0  0  0  0  0  0
   -0.8023    1.7907    0.4872 C   0  0  0  0  0  0  0  0  0  0  0  0
    0.7185    1.7291    0.3150 C   0  0  0  0  0  0  0  0  0  0  0  0
    1.2183    0.4310   -0.3325 C   0  0  0  0  0  0  0  0  0  0  0  0
    0.6063   -0.7069    0.2999 O   0  0  0  0  0  0  0  0  0  0  0  0
   -0.7647   -0.7105    0.2874 C   0  0  0  0  0  0  0  0  0  0  0  0
   -1.4939    0.4764    0.2879 C   0  0  0  0  0  0  0  0  0  0  0  0
   -2.8878    0.4375    0.1180 C   0  0  0  0  0  0  0  0  0  0  0  0
   -3.6011   -0.7929    0.0403 C   0  0  0  0  0  0  0  0  0  0  0  0
   -2.8188   -1.9660    0.1409 C   0  0  0  0  0  0  0  0  0  0  0  0
   -1.4195   -1.9431    0.2524 C   0  0  0  0  0  0  0  0  0  0  0  0
   -0.6834   -3.2048    0.3080 C   0  0  0  0  0  0  0  0  0  0  0  0
   -1.3279   -4.3729    0.2769 C   0  0  0  0  0  0  0  0  0  0  0  0
   -2.7893   -4.4449    0.1850 C   0  0  0  0  0  0  0  0  0  0  0  0
   -3.3714   -5.5224    0.1640 O   0  0  0  0  0  0  0  0  0  0  0  0
   -3.4569   -3.2315    0.1223 O   0  0  0  0  0  0  0  0  0  0  0  0
   -5.1482   -0.7854   -0.1366 C   0  0  0  0  0  0  0  0  0  0  0  0
   -5.8511   -2.1534   -0.3244 C   0  0  0  0  0  0  0  0  0  0  0  0
   -5.7780   -0.1844    1.1497 C   0  0  0  0  0  0  0  0  0  0  0  0
   -5.5761    0.0409   -1.3591 C   0  0  0  0  0  0  0  0  0  0  0  0
   -5.1113   -0.1155   -2.6085 C   0  0  0  0  0  0  0  0  0  0  0  0
   -3.6189    1.5905   -0.0026 O   0  0  0  0  0  0  0  0  0  0  0  0
    0.9826    0.3925   -1.8545 C   0  0  0  0  0  0  0  0  0  0  0  0
    2.7282    0.3504   -0.1201 C   0  0  0  0  0  0  0  0  0  0  0  0
    3.3805   -0.5838    0.5948 C   0  0  0  0  0  0  0  0  0  0  0  0
    4.8407   -0.6180    0.7912 C   0  0  0  0  0  0  0  0  0  0  0  0
    5.3835   -1.0313    2.0222 C   0  0  0  0  0  0  0  0  0  0  0  0
    6.7620   -1.0962    2.2185 C   0  0  0  0  0  0  0  0  0  0  0  0
    7.6033   -0.7561    1.1635 C   0  0  0  0  0  0  0  0  0  0  0  0
    7.1043   -0.3616   -0.0751 C   0  0  0  0  0  0  0  0  0  0  0  0
    5.7198   -0.2993   -0.2595 C   0  0  0  0  0  0  0  0  0  0  0  0
    8.0399   -0.0343   -1.1388 C   0  0  0  0  0  0  0  0  0  0  0  0
    9.3539   -0.1119   -0.9067 C   0  0  0  0  0  0  0  0  0  0  0  0
    9.9045   -0.5203    0.3976 C   0  0  0  0  0  0  0  0  0  0  0  0
   11.1155   -0.5763    0.5760 O   0  0  0  0  0  0  0  0  0  0  0  0
    8.9910   -0.8330    1.3954 O   0  0  0  0  0  0  0  0  0  0  0  0
    4.5404   -1.3699    3.0477 O   0  0  0  0  0  0  0  0  0  0  0  0
   -3.2578    3.6269    1.1895 C   0  0  0  0  0  0  0  0  0  0  0  0
   -3.3011    4.6180   -1.3996 H   0  0  0  0  0  0  0  0  0  0  0  0
   -4.7692    3.6657   -1.0816 H   0  0  0  0  0  0  0  0  0  0  0  0
   -3.5711    3.0572   -2.2076 H   0  0  0  0  0  0  0  0  0  0  0  0
   -1.3235    2.4971   -1.4749 H   0  0  0  0  0  0  0  0  0  0  0  0
   -1.0148    3.7935   -0.3218 H   0  0  0  0  0  0  0  0  0  0  0  0
   -0.9777    2.0927    1.5281 H   0  0  0  0  0  0  0  0  0  0  0  0
    1.1454    1.7903    1.3281 H   0  0  0  0  0  0  0  0  0  0  0  0
    1.0983    2.6134   -0.2129 H   0  0  0  0  0  0  0  0  0  0  0  0
    0.3991   -3.1748    0.3808 H   0  0  0  0  0  0  0  0  0  0  0  0
   -0.8038   -5.3191    0.3208 H   0  0  0  0  0  0  0  0  0  0  0  0
   -6.9283   -2.0260   -0.4975 H   0  0  0  0  0  0  0  0  0  0  0  0
   -5.4602   -2.7060   -1.1868 H   0  0  0  0  0  0  0  0  0  0  0  0
   -5.7610   -2.7836    0.5679 H   0  0  0  0  0  0  0  0  0  0  0  0
   -5.4985    0.8594    1.3221 H   0  0  0  0  0  0  0  0  0  0  0  0
   -5.4721   -0.7531    2.0365 H   0  0  0  0  0  0  0  0  0  0  0  0
   -6.8741   -0.2082    1.1055 H   0  0  0  0  0  0  0  0  0  0  0  0
   -6.3202    0.8163   -1.1855 H   0  0  0  0  0  0  0  0  0  0  0  0
   -5.4677    0.5157   -3.4158 H   0  0  0  0  0  0  0  0  0  0  0  0
   -4.3689   -0.8700   -2.8491 H   0  0  0  0  0  0  0  0  0  0  0  0
    1.4920    1.2188   -2.3634 H   0  0  0  0  0  0  0  0  0  0  0  0
    1.3486   -0.5506   -2.2788 H   0  0  0  0  0  0  0  0  0  0  0  0
   -0.0782    0.4495   -2.1170 H   0  0  0  0  0  0  0  0  0  0  0  0
    3.2972    1.1527   -0.5865 H   0  0  0  0  0  0  0  0  0  0  0  0
    2.8286   -1.3684    1.1093 H   0  0  0  0  0  0  0  0  0  0  0  0
    7.1891   -1.4064    3.1660 H   0  0  0  0  0  0  0  0  0  0  0  0
    5.3206   -0.0146   -1.2301 H   0  0  0  0  0  0  0  0  0  0  0  0
    7.6579    0.2680   -2.1077 H   0  0  0  0  0  0  0  0  0  0  0  0
   10.0838    0.1232   -1.6718 H   0  0  0  0  0  0  0  0  0  0  0  0
    5.0651   -1.6085    3.8293 H   0  0  0  0  0  0  0  0  0  0  0  0
   -2.8844    3.0800    2.0611 H   0  0  0  0  0  0  0  0  0  0  0  0
   -2.8076    4.6248    1.1833 H   0  0  0  0  0  0  0  0  0  0  0  0
   -4.3370    3.7380    1.3494 H   0  0  0  0  0  0  0  0  0  0  0  0
  1  2  1  0
  2  3  1  0
  3  4  1  0
  4  5  1  0
  5  6  1  0
  6  7  1  0
  7  8  1  0
  8  9  1  0
  9 10  2  0
 10 11  1  0
 11 12  2  0
 12 13  1  0
 13 14  1  0
 14 15  2  0
 15 16  1  0
 16 17  2  0
 16 18  1  0
 11 19  1  0
 19 20  1  0
 19 21  1  0
 19 22  1  0
 22 23  2  0
 10 24  1  0
  6 25  1  0
  6 26  1  0
 26 27  2  3
 27 28  1  0
 28 29  2  0
 29 30  1  0
 30 31  2  0
 31 32  1  0
 32 33  2  0
 32 34  1  0
 34 35  2  0
 35 36  1  0
 36 37  2  0
 36 38  1  0
 29 39  1  0
  2 40  1  0
 24  2  1  0
  9  4  1  0
 13  8  2  0
 18 12  1  0
 33 28  1  0
 38 31  1  0
  1 41  1  0
  1 42  1  0
  1 43  1  0
  3 44  1  0
  3 45  1  0
  4 46  1  0
  5 47  1  0
  5 48  1  0
 14 49  1  0
 15 50  1  0
 20 51  1  0
 20 52  1  0
 20 53  1  0
 21 54  1  0
 21 55  1  0
 21 56  1  0
 22 57  1  0
 23 58  1  0
 23 59  1  0
 25 60  1  0
 25 61  1  0
 25 62  1  0
 26 63  1  0
 27 64  1  0
 30 65  1  0
 33 66  1  0
 34 67  1  0
 35 68  1  0
 39 69  1  0
 40 70  1  0
 40 71  1  0
 40 72  1  0
M  END
>  <Name>  (768) 
Citrumarin-D

>  <PubChem ID>  (768) 
10098798

>  <CDB ID>  (768) 
CDB0768

>  <Smiles>  (768) 
CC1(CC2CC(OC3=C2C(=C(C4=C3C=CC(=O)O4)C(C)(C)C=C)O1)(C)C=CC5=C(C=C6C(=C5)C=CC(=O)O6)O)C

>  <Chemical class>  (768) 
Biscoumarins

>  <Natural source>  (768) 
Poncirus trifoliata, Citrus paradisi

>  <Molecular Formula>  (768) 
C33H32O7

>  <InChI-Key>  (768) 
ZPFUGLLYQXUCTE-UHFFFAOYSA-N

>  <Total Molweight>  (768) 
540.61

>  <cLogP>  (768) 
6.9483

>  <cLogS>  (768) 
-7.85

>  <H-Acceptors>  (768) 
7

>  <H-Donors>  (768) 
1

>  <Rotatable Bonds>  (768) 
4

>  <Polar Surface Area>  (768) 
91.29

$$$$
CDB0769
     RDKit          3D

 72 77  0  0  0  0  0  0  0  0999 V2000
   -2.9993    1.8453   -2.7225 C   0  0  0  0  0  0  0  0  0  0  0  0
   -2.8694    0.3747   -2.2978 C   0  0  0  0  0  0  0  0  0  0  0  0
   -1.4220   -0.1362   -2.3927 C   0  0  0  0  0  0  0  0  0  0  0  0
   -0.5811    0.4899   -1.2906 C   0  0  0  0  0  0  0  0  0  0  0  0
    0.8978    0.0889   -1.3584 C   0  0  0  0  0  0  0  0  0  0  0  0
    1.3691   -0.7588   -0.1666 C   0  0  0  0  0  0  0  0  0  0  0  0
    0.9028   -0.1680    1.0635 O   0  0  0  0  0  0  0  0  0  0  0  0
   -0.4593   -0.0329    1.1551 C   0  0  0  0  0  0  0  0  0  0  0  0
   -1.2391    0.1933    0.0231 C   0  0  0  0  0  0  0  0  0  0  0  0
   -2.6406    0.1696    0.1269 C   0  0  0  0  0  0  0  0  0  0  0  0
   -3.2988    0.0141    1.3810 C   0  0  0  0  0  0  0  0  0  0  0  0
   -2.4534   -0.1167    2.5075 C   0  0  0  0  0  0  0  0  0  0  0  0
   -1.0529   -0.1509    2.4126 C   0  0  0  0  0  0  0  0  0  0  0  0
   -0.2546   -0.3283    3.6242 C   0  0  0  0  0  0  0  0  0  0  0  0
   -0.8406   -0.4389    4.8180 C   0  0  0  0  0  0  0  0  0  0  0  0
   -2.2980   -0.3902    4.9685 C   0  0  0  0  0  0  0  0  0  0  0  0
   -2.8262   -0.4896    6.0689 O   0  0  0  0  0  0  0  0  0  0  0  0
   -3.0258   -0.2296    3.7995 O   0  0  0  0  0  0  0  0  0  0  0  0
   -4.8575    0.0091    1.4450 C   0  0  0  0  0  0  0  0  0  0  0  0
   -5.3655    1.4181    1.0365 C   0  0  0  0  0  0  0  0  0  0  0  0
   -5.4970   -0.2608    2.8310 C   0  0  0  0  0  0  0  0  0  0  0  0
   -5.4094   -1.1364    0.5806 C   0  0  0  0  0  0  0  0  0  0  0  0
   -6.3293   -1.0615   -0.3924 C   0  0  0  0  0  0  0  0  0  0  0  0
   -3.4369    0.2580   -0.9851 O   0  0  0  0  0  0  0  0  0  0  0  0
    0.9134   -2.2280   -0.2782 C   0  0  0  0  0  0  0  0  0  0  0  0
    2.8862   -0.7984   -0.0175 C   0  0  0  0  0  0  0  0  0  0  0  0
    3.8118   -0.4668   -0.9346 C   0  0  0  0  0  0  0  0  0  0  0  0
    5.2561   -0.4885   -0.6481 C   0  0  0  0  0  0  0  0  0  0  0  0
    5.9488   -1.6485   -0.2715 C   0  0  0  0  0  0  0  0  0  0  0  0
    7.3172   -1.6156    0.0041 C   0  0  0  0  0  0  0  0  0  0  0  0
    8.0296   -0.4199   -0.1062 C   0  0  0  0  0  0  0  0  0  0  0  0
    7.3731    0.7464   -0.4995 C   0  0  0  0  0  0  0  0  0  0  0  0
    6.0018    0.6971   -0.7686 C   0  0  0  0  0  0  0  0  0  0  0  0
    5.3246    1.8747   -1.1741 O   0  0  0  0  0  0  0  0  0  0  0  0
    5.9782    3.0890   -1.3177 C   0  0  0  0  0  0  0  0  0  0  0  0
    5.4013    4.1069   -1.6814 O   0  0  0  0  0  0  0  0  0  0  0  0
    7.4187    3.1046   -1.0162 C   0  0  0  0  0  0  0  0  0  0  0  0
    8.0815    2.0097   -0.6327 C   0  0  0  0  0  0  0  0  0  0  0  0
    5.3516   -2.8758   -0.1673 O   0  0  0  0  0  0  0  0  0  0  0  0
   -3.7528   -0.4760   -3.2225 C   0  0  0  0  0  0  0  0  0  0  0  0
   -2.5783    2.0162   -3.7185 H   0  0  0  0  0  0  0  0  0  0  0  0
   -2.5071    2.5186   -2.0136 H   0  0  0  0  0  0  0  0  0  0  0  0
   -4.0522    2.1518   -2.7373 H   0  0  0  0  0  0  0  0  0  0  0  0
   -1.4069   -1.2292   -2.2800 H   0  0  0  0  0  0  0  0  0  0  0  0
   -1.0002    0.0894   -3.3799 H   0  0  0  0  0  0  0  0  0  0  0  0
   -0.6028    1.5806   -1.4165 H   0  0  0  0  0  0  0  0  0  0  0  0
    1.4641    1.0323   -1.3556 H   0  0  0  0  0  0  0  0  0  0  0  0
    1.1357   -0.3964   -2.3135 H   0  0  0  0  0  0  0  0  0  0  0  0
    0.8267   -0.3608    3.5371 H   0  0  0  0  0  0  0  0  0  0  0  0
   -0.2695   -0.5660    5.7289 H   0  0  0  0  0  0  0  0  0  0  0  0
   -4.9189    2.1911    1.6744 H   0  0  0  0  0  0  0  0  0  0  0  0
   -6.4542    1.4997    1.1424 H   0  0  0  0  0  0  0  0  0  0  0  0
   -5.1290    1.6812    0.0012 H   0  0  0  0  0  0  0  0  0  0  0  0
   -5.1836   -1.2238    3.2518 H   0  0  0  0  0  0  0  0  0  0  0  0
   -6.5929   -0.2943    2.7617 H   0  0  0  0  0  0  0  0  0  0  0  0
   -5.2654    0.5338    3.5495 H   0  0  0  0  0  0  0  0  0  0  0  0
   -4.9957   -2.1203    0.8036 H   0  0  0  0  0  0  0  0  0  0  0  0
   -6.7917   -0.1255   -0.6847 H   0  0  0  0  0  0  0  0  0  0  0  0
   -6.6337   -1.9535   -0.9310 H   0  0  0  0  0  0  0  0  0  0  0  0
    1.1933   -2.7942    0.6188 H   0  0  0  0  0  0  0  0  0  0  0  0
   -0.1726   -2.3258   -0.3699 H   0  0  0  0  0  0  0  0  0  0  0  0
    1.3607   -2.7197   -1.1498 H   0  0  0  0  0  0  0  0  0  0  0  0
    3.2240   -1.1180    0.9703 H   0  0  0  0  0  0  0  0  0  0  0  0
    3.5428   -0.1063   -1.9238 H   0  0  0  0  0  0  0  0  0  0  0  0
    7.8293   -2.5285    0.2993 H   0  0  0  0  0  0  0  0  0  0  0  0
    9.0948   -0.4165    0.1119 H   0  0  0  0  0  0  0  0  0  0  0  0
    7.9125    4.0624   -1.1262 H   0  0  0  0  0  0  0  0  0  0  0  0
    9.1438    2.0462   -0.4166 H   0  0  0  0  0  0  0  0  0  0  0  0
    4.4355   -2.7995   -0.4824 H   0  0  0  0  0  0  0  0  0  0  0  0
   -4.7978   -0.1475   -3.1798 H   0  0  0  0  0  0  0  0  0  0  0  0
   -3.4160   -0.4250   -4.2631 H   0  0  0  0  0  0  0  0  0  0  0  0
   -3.7486   -1.5256   -2.9063 H   0  0  0  0  0  0  0  0  0  0  0  0
  1  2  1  0
  2  3  1  0
  3  4  1  0
  4  5  1  0
  5  6  1  0
  6  7  1  0
  7  8  1  0
  8  9  1  0
  9 10  2  0
 10 11  1  0
 11 12  2  0
 12 13  1  0
 13 14  1  0
 14 15  2  0
 15 16  1  0
 16 17  2  0
 16 18  1  0
 11 19  1  0
 19 20  1  0
 19 21  1  0
 19 22  1  0
 22 23  2  0
 10 24  1  0
  6 25  1  0
  6 26  1  0
 26 27  2  3
 27 28  1  0
 28 29  2  0
 29 30  1  0
 30 31  2  0
 31 32  1  0
 32 33  2  0
 33 34  1  0
 34 35  1  0
 35 36  2  0
 35 37  1  0
 37 38  2  0
 29 39  1  0
  2 40  1  0
 24  2  1  0
  9  4  1  0
 13  8  2  0
 18 12  1  0
 33 28  1  0
 38 32  1  0
  1 41  1  0
  1 42  1  0
  1 43  1  0
  3 44  1  0
  3 45  1  0
  4 46  1  0
  5 47  1  0
  5 48  1  0
 14 49  1  0
 15 50  1  0
 20 51  1  0
 20 52  1  0
 20 53  1  0
 21 54  1  0
 21 55  1  0
 21 56  1  0
 22 57  1  0
 23 58  1  0
 23 59  1  0
 25 60  1  0
 25 61  1  0
 25 62  1  0
 26 63  1  0
 27 64  1  0
 30 65  1  0
 31 66  1  0
 37 67  1  0
 38 68  1  0
 39 69  1  0
 40 70  1  0
 40 71  1  0
 40 72  1  0
M  END
>  <Name>  (769) 
Citrumarin-B

>  <PubChem ID>  (769) 
11757064

>  <CDB ID>  (769) 
CDB0769

>  <Smiles>  (769) 
CC1(CC2CC(OC3=C2C(=C(C4=C3C=CC(=O)O4)C(C)(C)C=C)O1)(C)C=CC5=C(C=CC6=C5OC(=O)C=C6)O)C

>  <Chemical class>  (769) 
Biscoumarins

>  <Natural source>  (769) 
Poncirus trifoliata, Citrus paradisi

>  <Molecular Formula>  (769) 
C33H32O7

>  <InChI-Key>  (769) 
UYRKZIRGOMUSBM-UHFFFAOYSA-N

>  <Total Molweight>  (769) 
540.61

>  <cLogP>  (769) 
6.9483

>  <cLogS>  (769) 
-7.85

>  <H-Acceptors>  (769) 
7

>  <H-Donors>  (769) 
1

>  <Rotatable Bonds>  (769) 
4

>  <Polar Surface Area>  (769) 
91.29

$$$$
CDB0770
     RDKit          3D

 75 80  0  0  0  0  0  0  0  0999 V2000
   -3.3617    3.1775    2.8655 C   0  0  0  0  0  0  0  0  0  0  0  0
   -2.7665    2.8285    1.4933 C   0  0  0  0  0  0  0  0  0  0  0  0
   -1.2527    2.6481    1.6441 C   0  0  0  0  0  0  0  0  0  0  0  0
   -0.6695    2.1129    0.3461 C   0  0  0  0  0  0  0  0  0  0  0  0
    0.8124    1.7911    0.4825 C   0  0  0  0  0  0  0  0  0  0  0  0
    1.3318    1.1379   -0.8075 C   0  0  0  0  0  0  0  0  0  0  0  0
    0.5634   -0.0146   -1.1823 O   0  0  0  0  0  0  0  0  0  0  0  0
   -0.7640   -0.0835   -0.8493 C   0  0  0  0  0  0  0  0  0  0  0  0
   -1.4198    0.8839   -0.0781 C   0  0  0  0  0  0  0  0  0  0  0  0
   -2.7763    0.7122    0.2819 C   0  0  0  0  0  0  0  0  0  0  0  0
   -3.5137   -0.4211   -0.1376 C   0  0  0  0  0  0  0  0  0  0  0  0
   -2.8082   -1.3521   -0.9459 C   0  0  0  0  0  0  0  0  0  0  0  0
   -1.4598   -1.2104   -1.2947 C   0  0  0  0  0  0  0  0  0  0  0  0
   -0.8233   -2.2459   -2.1084 C   0  0  0  0  0  0  0  0  0  0  0  0
   -1.5153   -3.3070   -2.5290 C   0  0  0  0  0  0  0  0  0  0  0  0
   -2.9346   -3.4849   -2.2043 C   0  0  0  0  0  0  0  0  0  0  0  0
   -3.5589   -4.4574   -2.6111 O   0  0  0  0  0  0  0  0  0  0  0  0
   -3.5096   -2.4935   -1.4270 O   0  0  0  0  0  0  0  0  0  0  0  0
   -5.0098   -0.6854    0.2139 C   0  0  0  0  0  0  0  0  0  0  0  0
   -5.6761    0.2742    1.2337 C   0  0  0  0  0  0  0  0  0  0  0  0
   -5.8410   -0.5317   -1.0874 C   0  0  0  0  0  0  0  0  0  0  0  0
   -5.1478   -2.0579    0.8924 C   0  0  0  0  0  0  0  0  0  0  0  0
   -5.9253   -3.0854    0.5205 C   0  0  0  0  0  0  0  0  0  0  0  0
   -3.4177    1.6214    1.0759 O   0  0  0  0  0  0  0  0  0  0  0  0
    1.3329    2.0999   -2.0063 C   0  0  0  0  0  0  0  0  0  0  0  0
    2.7708    0.7085   -0.5582 C   0  0  0  0  0  0  0  0  0  0  0  0
    3.2308   -0.5547   -0.5349 C   0  0  0  0  0  0  0  0  0  0  0  0
    4.6393   -0.9157   -0.2783 C   0  0  0  0  0  0  0  0  0  0  0  0
    5.3001   -1.8141   -1.1445 C   0  0  0  0  0  0  0  0  0  0  0  0
    6.6301   -2.1758   -0.8876 C   0  0  0  0  0  0  0  0  0  0  0  0
    7.3090   -1.6659    0.2247 C   0  0  0  0  0  0  0  0  0  0  0  0
    6.6654   -0.7931    1.0992 C   0  0  0  0  0  0  0  0  0  0  0  0
    5.3414   -0.4324    0.8421 C   0  0  0  0  0  0  0  0  0  0  0  0
    4.6717    0.4334    1.7434 O   0  0  0  0  0  0  0  0  0  0  0  0
    5.2918    0.9679    2.8611 C   0  0  0  0  0  0  0  0  0  0  0  0
    4.7233    1.7401    3.6241 O   0  0  0  0  0  0  0  0  0  0  0  0
    6.6881    0.5669    3.0947 C   0  0  0  0  0  0  0  0  0  0  0  0
    7.3404   -0.2596    2.2723 C   0  0  0  0  0  0  0  0  0  0  0  0
    4.5697   -2.2798   -2.2111 O   0  0  0  0  0  0  0  0  0  0  0  0
    5.2115   -3.1634   -3.1205 C   0  0  0  0  0  0  0  0  0  0  0  0
   -3.1443    3.9402    0.5035 C   0  0  0  0  0  0  0  0  0  0  0  0
   -4.4514    3.2821    2.8056 H   0  0  0  0  0  0  0  0  0  0  0  0
   -3.1716    2.3751    3.5879 H   0  0  0  0  0  0  0  0  0  0  0  0
   -2.9445    4.1087    3.2626 H   0  0  0  0  0  0  0  0  0  0  0  0
   -0.7707    3.5937    1.9209 H   0  0  0  0  0  0  0  0  0  0  0  0
   -1.0493    1.9329    2.4539 H   0  0  0  0  0  0  0  0  0  0  0  0
   -0.7920    2.8724   -0.4347 H   0  0  0  0  0  0  0  0  0  0  0  0
    0.9548    1.0997    1.3263 H   0  0  0  0  0  0  0  0  0  0  0  0
    1.3772    2.7024    0.7184 H   0  0  0  0  0  0  0  0  0  0  0  0
    0.2259   -2.1373   -2.3644 H   0  0  0  0  0  0  0  0  0  0  0  0
   -1.0626   -4.0840   -3.1315 H   0  0  0  0  0  0  0  0  0  0  0  0
   -5.1419    0.2965    2.1914 H   0  0  0  0  0  0  0  0  0  0  0  0
   -6.7051   -0.0387    1.4575 H   0  0  0  0  0  0  0  0  0  0  0  0
   -5.7517    1.2967    0.8460 H   0  0  0  0  0  0  0  0  0  0  0  0
   -5.6958    0.4640   -1.5248 H   0  0  0  0  0  0  0  0  0  0  0  0
   -6.9146   -0.6483   -0.8950 H   0  0  0  0  0  0  0  0  0  0  0  0
   -5.5755   -1.2608   -1.8589 H   0  0  0  0  0  0  0  0  0  0  0  0
   -4.5343   -2.1924    1.7843 H   0  0  0  0  0  0  0  0  0  0  0  0
   -6.5615   -3.0489   -0.3571 H   0  0  0  0  0  0  0  0  0  0  0  0
   -5.9253   -4.0102    1.0894 H   0  0  0  0  0  0  0  0  0  0  0  0
    0.3167    2.3505   -2.3286 H   0  0  0  0  0  0  0  0  0  0  0  0
    1.8123    1.6357   -2.8773 H   0  0  0  0  0  0  0  0  0  0  0  0
    1.8640    3.0311   -1.7807 H   0  0  0  0  0  0  0  0  0  0  0  0
    3.4675    1.5251   -0.3738 H   0  0  0  0  0  0  0  0  0  0  0  0
    2.5680   -1.3934   -0.7344 H   0  0  0  0  0  0  0  0  0  0  0  0
    7.1704   -2.8591   -1.5353 H   0  0  0  0  0  0  0  0  0  0  0  0
    8.3398   -1.9670    0.3979 H   0  0  0  0  0  0  0  0  0  0  0  0
    7.1572    0.9843    3.9771 H   0  0  0  0  0  0  0  0  0  0  0  0
    8.3696   -0.5419    2.4654 H   0  0  0  0  0  0  0  0  0  0  0  0
    6.0677   -2.6807   -3.6029 H   0  0  0  0  0  0  0  0  0  0  0  0
    5.5069   -4.0937   -2.6244 H   0  0  0  0  0  0  0  0  0  0  0  0
    4.4903   -3.4191   -3.9028 H   0  0  0  0  0  0  0  0  0  0  0  0
   -4.2297    4.0958    0.4937 H   0  0  0  0  0  0  0  0  0  0  0  0
   -2.6633    4.8890    0.7625 H   0  0  0  0  0  0  0  0  0  0  0  0
   -2.8754    3.6810   -0.5255 H   0  0  0  0  0  0  0  0  0  0  0  0
  1  2  1  0
  2  3  1  0
  3  4  1  0
  4  5  1  0
  5  6  1  0
  6  7  1  0
  7  8  1  0
  8  9  1  0
  9 10  2  0
 10 11  1  0
 11 12  2  0
 12 13  1  0
 13 14  1  0
 14 15  2  0
 15 16  1  0
 16 17  2  0
 16 18  1  0
 11 19  1  0
 19 20  1  0
 19 21  1  0
 19 22  1  0
 22 23  2  0
 10 24  1  0
  6 25  1  0
  6 26  1  0
 26 27  2  3
 27 28  1  0
 28 29  2  0
 29 30  1  0
 30 31  2  0
 31 32  1  0
 32 33  2  0
 33 34  1  0
 34 35  1  0
 35 36  2  0
 35 37  1  0
 37 38  2  0
 29 39  1  0
 39 40  1  0
  2 41  1  0
 24  2  1  0
  9  4  1  0
 13  8  2  0
 18 12  1  0
 33 28  1  0
 38 32  1  0
  1 42  1  0
  1 43  1  0
  1 44  1  0
  3 45  1  0
  3 46  1  0
  4 47  1  0
  5 48  1  0
  5 49  1  0
 14 50  1  0
 15 51  1  0
 20 52  1  0
 20 53  1  0
 20 54  1  0
 21 55  1  0
 21 56  1  0
 21 57  1  0
 22 58  1  0
 23 59  1  0
 23 60  1  0
 25 61  1  0
 25 62  1  0
 25 63  1  0
 26 64  1  0
 27 65  1  0
 30 66  1  0
 31 67  1  0
 37 68  1  0
 38 69  1  0
 40 70  1  0
 40 71  1  0
 40 72  1  0
 41 73  1  0
 41 74  1  0
 41 75  1  0
M  END
>  <Name>  (770) 
Citrumarin -A

>  <PubChem ID>  (770) 
10347631

>  <CDB ID>  (770) 
CDB0770

>  <Smiles>  (770) 
CC1(CC2CC(OC3=C2C(=C(C4=C3C=CC(=O)O4)C(C)(C)C=C)O1)(C)C=CC5=C(C=CC6=C5OC(=O)C=C6)OC)C

>  <Chemical class>  (770) 
Biscoumarins

>  <Natural source>  (770) 
Poncirus trifoliata, Citrus paradisi

>  <Molecular Formula>  (770) 
C34H34O7

>  <InChI-Key>  (770) 
HWZJQFNBCNCTQJ-UHFFFAOYSA-N

>  <Total Molweight>  (770) 
554.637

>  <cLogP>  (770) 
7.224

>  <cLogS>  (770) 
-8.164

>  <H-Acceptors>  (770) 
7

>  <H-Donors>  (770) 
0

>  <Rotatable Bonds>  (770) 
5

>  <Polar Surface Area>  (770) 
80.29

$$$$
CDB0771
     RDKit          3D

 87 93  0  0  0  0  0  0  0  0999 V2000
    1.9344    1.9830    1.0692 C   0  0  0  0  0  0  0  0  0  0  0  0
    2.0041    1.7740   -0.4565 C   0  0  0  0  0  0  0  0  0  0  0  0
    0.8658    0.9447   -1.0916 C   0  0  0  0  0  0  0  0  0  0  0  0
   -0.5519    1.2586   -0.6123 C   0  0  0  0  0  0  0  0  0  0  0  0
   -0.7975    0.2040    0.4561 C   0  0  0  0  0  0  0  0  0  0  0  0
   -2.2419   -0.1474    0.6841 C   0  0  0  0  0  0  0  0  0  0  0  0
   -3.2601    0.4446   -0.0903 C   0  0  0  0  0  0  0  0  0  0  0  0
   -4.6288    0.1695    0.1376 C   0  0  0  0  0  0  0  0  0  0  0  0
   -4.9064   -0.7663    1.1719 C   0  0  0  0  0  0  0  0  0  0  0  0
   -3.9207   -1.3653    1.9677 C   0  0  0  0  0  0  0  0  0  0  0  0
   -2.5880   -1.0497    1.7017 C   0  0  0  0  0  0  0  0  0  0  0  0
   -1.5653   -1.5964    2.4343 O   0  0  0  0  0  0  0  0  0  0  0  0
   -4.3323   -2.2467    3.0594 C   0  0  0  0  0  0  0  0  0  0  0  0
   -5.6216   -2.5386    3.2509 C   0  0  0  0  0  0  0  0  0  0  0  0
   -6.6799   -1.9979    2.3905 C   0  0  0  0  0  0  0  0  0  0  0  0
   -7.8518   -2.3119    2.5555 O   0  0  0  0  0  0  0  0  0  0  0  0
   -6.2655   -1.1209    1.4034 O   0  0  0  0  0  0  0  0  0  0  0  0
   -5.8031    0.7963   -0.6735 C   0  0  0  0  0  0  0  0  0  0  0  0
   -5.4446    1.9396   -1.6575 C   0  0  0  0  0  0  0  0  0  0  0  0
   -6.4238   -0.3188   -1.5554 C   0  0  0  0  0  0  0  0  0  0  0  0
   -6.7965    1.4683    0.2875 C   0  0  0  0  0  0  0  0  0  0  0  0
   -8.1117    1.2345    0.4066 C   0  0  0  0  0  0  0  0  0  0  0  0
   -2.9349    1.3353   -1.0758 O   0  0  0  0  0  0  0  0  0  0  0  0
   -1.6463    1.1945   -1.7007 C   0  0  0  0  0  0  0  0  0  0  0  0
   -1.5230    2.4288   -2.6159 C   0  0  0  0  0  0  0  0  0  0  0  0
   -1.6618   -0.0523   -2.6035 C   0  0  0  0  0  0  0  0  0  0  0  0
   -0.0472   -0.9540    0.0560 O   0  0  0  0  0  0  0  0  0  0  0  0
    1.0249   -0.5440   -0.8090 C   0  0  0  0  0  0  0  0  0  0  0  0
    2.3518   -0.9652   -0.2442 C   0  0  0  0  0  0  0  0  0  0  0  0
    3.4612   -0.1114   -0.3732 C   0  0  0  0  0  0  0  0  0  0  0  0
    3.2687    1.1776   -0.8150 O   0  0  0  0  0  0  0  0  0  0  0  0
    4.7866   -0.5266   -0.0693 C   0  0  0  0  0  0  0  0  0  0  0  0
    4.9065   -1.8209    0.4863 C   0  0  0  0  0  0  0  0  0  0  0  0
    3.8082   -2.6727    0.6880 C   0  0  0  0  0  0  0  0  0  0  0  0
    2.5377   -2.2339    0.3144 C   0  0  0  0  0  0  0  0  0  0  0  0
    1.4638   -3.0660    0.5180 O   0  0  0  0  0  0  0  0  0  0  0  0
    4.0217   -3.9930    1.2756 C   0  0  0  0  0  0  0  0  0  0  0  0
    5.2442   -4.3916    1.6324 C   0  0  0  0  0  0  0  0  0  0  0  0
    6.4179   -3.5310    1.4551 C   0  0  0  0  0  0  0  0  0  0  0  0
    7.5348   -3.9034    1.7928 O   0  0  0  0  0  0  0  0  0  0  0  0
    6.1832   -2.2864    0.8904 O   0  0  0  0  0  0  0  0  0  0  0  0
    5.9878    0.4241   -0.3366 C   0  0  0  0  0  0  0  0  0  0  0  0
    5.9271    1.5852    0.6888 C   0  0  0  0  0  0  0  0  0  0  0  0
    7.4101   -0.1751   -0.1919 C   0  0  0  0  0  0  0  0  0  0  0  0
    5.9431    0.9956   -1.7627 C   0  0  0  0  0  0  0  0  0  0  0  0
    5.9638    0.2723   -2.8932 C   0  0  0  0  0  0  0  0  0  0  0  0
    2.0286    3.1712   -1.1063 C   0  0  0  0  0  0  0  0  0  0  0  0
    1.0611    2.5730    1.3635 H   0  0  0  0  0  0  0  0  0  0  0  0
    2.8253    2.5125    1.4257 H   0  0  0  0  0  0  0  0  0  0  0  0
    1.9071    1.0388    1.6209 H   0  0  0  0  0  0  0  0  0  0  0  0
    0.9605    1.0771   -2.1772 H   0  0  0  0  0  0  0  0  0  0  0  0
   -0.6261    2.2487   -0.1449 H   0  0  0  0  0  0  0  0  0  0  0  0
   -0.3794    0.5496    1.4090 H   0  0  0  0  0  0  0  0  0  0  0  0
   -1.7963   -2.5156    2.6484 H   0  0  0  0  0  0  0  0  0  0  0  0
   -3.5900   -2.6418    3.7426 H   0  0  0  0  0  0  0  0  0  0  0  0
   -5.9518   -3.1809    4.0582 H   0  0  0  0  0  0  0  0  0  0  0  0
   -6.3475    2.3635   -2.1178 H   0  0  0  0  0  0  0  0  0  0  0  0
   -4.9286    2.7688   -1.1584 H   0  0  0  0  0  0  0  0  0  0  0  0
   -4.8242    1.5854   -2.4886 H   0  0  0  0  0  0  0  0  0  0  0  0
   -7.2219    0.0738   -2.1974 H   0  0  0  0  0  0  0  0  0  0  0  0
   -5.6649   -0.7601   -2.2137 H   0  0  0  0  0  0  0  0  0  0  0  0
   -6.8570   -1.1384   -0.9739 H   0  0  0  0  0  0  0  0  0  0  0  0
   -6.3637    2.2282    0.9395 H   0  0  0  0  0  0  0  0  0  0  0  0
   -8.6306    0.4934   -0.1916 H   0  0  0  0  0  0  0  0  0  0  0  0
   -8.7051    1.7808    1.1338 H   0  0  0  0  0  0  0  0  0  0  0  0
   -0.5876    2.4340   -3.1832 H   0  0  0  0  0  0  0  0  0  0  0  0
   -1.5798    3.3553   -2.0326 H   0  0  0  0  0  0  0  0  0  0  0  0
   -2.3551    2.4688   -3.3290 H   0  0  0  0  0  0  0  0  0  0  0  0
   -1.7479   -0.9810   -2.0317 H   0  0  0  0  0  0  0  0  0  0  0  0
   -0.7674   -0.1173   -3.2302 H   0  0  0  0  0  0  0  0  0  0  0  0
   -2.5344   -0.0304   -3.2678 H   0  0  0  0  0  0  0  0  0  0  0  0
    0.8907   -1.1031   -1.7438 H   0  0  0  0  0  0  0  0  0  0  0  0
    0.6529   -2.5126    0.4823 H   0  0  0  0  0  0  0  0  0  0  0  0
    3.1643   -4.6440    1.4131 H   0  0  0  0  0  0  0  0  0  0  0  0
    5.4259   -5.3657    2.0684 H   0  0  0  0  0  0  0  0  0  0  0  0
    5.9158    1.2020    1.7163 H   0  0  0  0  0  0  0  0  0  0  0  0
    5.0426    2.2163    0.5658 H   0  0  0  0  0  0  0  0  0  0  0  0
    6.7963    2.2478    0.5929 H   0  0  0  0  0  0  0  0  0  0  0  0
    7.5461   -1.0743   -0.8041 H   0  0  0  0  0  0  0  0  0  0  0  0
    8.1780    0.5432   -0.5094 H   0  0  0  0  0  0  0  0  0  0  0  0
    7.6450   -0.4221    0.8497 H   0  0  0  0  0  0  0  0  0  0  0  0
    5.8851    2.0791   -1.8530 H   0  0  0  0  0  0  0  0  0  0  0  0
    6.0149   -0.8119   -2.8750 H   0  0  0  0  0  0  0  0  0  0  0  0
    5.9251    0.7575   -3.8632 H   0  0  0  0  0  0  0  0  0  0  0  0
    2.1589    3.0969   -2.1923 H   0  0  0  0  0  0  0  0  0  0  0  0
    2.8806    3.7558   -0.7390 H   0  0  0  0  0  0  0  0  0  0  0  0
    1.1121    3.7345   -0.9049 H   0  0  0  0  0  0  0  0  0  0  0  0
  1  2  1  0
  2  3  1  0
  3  4  1  0
  4  5  1  0
  5  6  1  0
  6  7  2  0
  7  8  1  0
  8  9  2  0
  9 10  1  0
 10 11  2  0
 11 12  1  0
 10 13  1  0
 13 14  2  0
 14 15  1  0
 15 16  2  0
 15 17  1  0
  8 18  1  0
 18 19  1  0
 18 20  1  0
 18 21  1  0
 21 22  2  0
  7 23  1  0
 23 24  1  0
 24 25  1  0
 24 26  1  0
  5 27  1  0
 27 28  1  0
 28 29  1  0
 29 30  2  0
 30 31  1  0
 30 32  1  0
 32 33  2  0
 33 34  1  0
 34 35  2  0
 35 36  1  0
 34 37  1  0
 37 38  2  0
 38 39  1  0
 39 40  2  0
 39 41  1  0
 32 42  1  0
 42 43  1  0
 42 44  1  0
 42 45  1  0
 45 46  2  0
  2 47  1  0
 31  2  1  0
 28  3  1  0
 24  4  1  0
 11  6  1  0
 17  9  1  0
 35 29  1  0
 41 33  1  0
  1 48  1  0
  1 49  1  0
  1 50  1  0
  3 51  1  0
  4 52  1  0
  5 53  1  0
 12 54  1  0
 13 55  1  0
 14 56  1  0
 19 57  1  0
 19 58  1  0
 19 59  1  0
 20 60  1  0
 20 61  1  0
 20 62  1  0
 21 63  1  0
 22 64  1  0
 22 65  1  0
 25 66  1  0
 25 67  1  0
 25 68  1  0
 26 69  1  0
 26 70  1  0
 26 71  1  0
 28 72  1  0
 36 73  1  0
 37 74  1  0
 38 75  1  0
 43 76  1  0
 43 77  1  0
 43 78  1  0
 44 79  1  0
 44 80  1  0
 44 81  1  0
 45 82  1  0
 46 83  1  0
 46 84  1  0
 47 85  1  0
 47 86  1  0
 47 87  1  0
M  END
>  <Name>  (771) 
Furobinordentatin

>  <PubChem ID>  (771) 
10009319

>  <CDB ID>  (771) 
CDB0771

>  <Smiles>  (771) 
CC1(C2C3C(C4=C(C(=C5C(=C4O)C=CC(=O)O5)C(C)(C)C=C)OC3(C)C)OC2C6=C(O1)C(=C7C(=C6O)C=CC(=O)O7)C(C)(C)C=C)C

>  <Chemical class>  (771) 
Biscoumarins

>  <Natural source>  (771) 
Citrus yuko

>  <Molecular Formula>  (771) 
C38H40O9

>  <InChI-Key>  (771) 
DANYDCOFKKXSPK-UHFFFAOYSA-N

>  <Total Molweight>  (771) 
640.727

>  <cLogP>  (771) 
7.0498

>  <cLogS>  (771) 
-7.855

>  <H-Acceptors>  (771) 
9

>  <H-Donors>  (771) 
2

>  <Rotatable Bonds>  (771) 
4

>  <Polar Surface Area>  (771) 
120.75

$$$$
CDB0772
     RDKit          3D

110117  0  0  0  0  0  0  0  0999 V2000
   -0.4642   -4.0573   -0.1850 C   0  0  0  0  0  0  0  0  0  0  0  0
    0.2216   -2.9688   -1.0283 C   0  0  0  0  0  0  0  0  0  0  0  0
   -0.3971   -1.5962   -0.6741 C   0  0  0  0  0  0  0  0  0  0  0  0
    0.4418   -0.5088   -1.3159 C   0  0  0  0  0  0  0  0  0  0  0  0
   -0.1687    0.8751   -1.1110 C   0  0  0  0  0  0  0  0  0  0  0  0
    0.6745    1.7305   -0.1864 C   0  0  0  0  0  0  0  0  0  0  0  0
    0.0605    3.1481   -0.1357 C   0  0  0  0  0  0  0  0  0  0  0  0
   -1.3512    3.1415    0.1682 O   0  0  0  0  0  0  0  0  0  0  0  0
   -2.1213    2.0282   -0.0236 C   0  0  0  0  0  0  0  0  0  0  0  0
   -3.4772    2.0698    0.3736 C   0  0  0  0  0  0  0  0  0  0  0  0
   -4.2221    0.8722    0.1703 C   0  0  0  0  0  0  0  0  0  0  0  0
   -3.6797   -0.3081   -0.3340 C   0  0  0  0  0  0  0  0  0  0  0  0
   -4.5300   -1.4880   -0.4604 C   0  0  0  0  0  0  0  0  0  0  0  0
   -5.8341   -1.4973   -0.1278 C   0  0  0  0  0  0  0  0  0  0  0  0
   -6.4422   -0.2358    0.3967 C   0  0  0  0  0  0  0  0  0  0  0  0
   -7.6191   -0.1406    0.7232 O   0  0  0  0  0  0  0  0  0  0  0  0
   -5.5972    0.8625    0.5092 O   0  0  0  0  0  0  0  0  0  0  0  0
   -6.7555   -2.7295   -0.2572 C   0  0  0  0  0  0  0  0  0  0  0  0
   -7.2755   -3.1375    1.1437 C   0  0  0  0  0  0  0  0  0  0  0  0
   -6.0199   -3.9842   -0.8039 C   0  0  0  0  0  0  0  0  0  0  0  0
   -7.8537   -2.4461   -1.2834 C   0  0  0  0  0  0  0  0  0  0  0  0
   -9.1801   -2.4699   -1.0901 C   0  0  0  0  0  0  0  0  0  0  0  0
   -2.3315   -0.3142   -0.6787 C   0  0  0  0  0  0  0  0  0  0  0  0
   -1.5716    0.8579   -0.5819 C   0  0  0  0  0  0  0  0  0  0  0  0
   -1.7607   -1.4912   -1.1108 O   0  0  0  0  0  0  0  0  0  0  0  0
   -4.1823    3.3180    0.9852 C   0  0  0  0  0  0  0  0  0  0  0  0
   -3.2824    4.5331    1.3275 C   0  0  0  0  0  0  0  0  0  0  0  0
   -5.2029    3.8512   -0.0548 C   0  0  0  0  0  0  0  0  0  0  0  0
   -4.7989    2.9481    2.3433 C   0  0  0  0  0  0  0  0  0  0  0  0
   -6.0797    3.0643    2.7235 C   0  0  0  0  0  0  0  0  0  0  0  0
    0.7337    3.9430    0.9964 C   0  0  0  0  0  0  0  0  0  0  0  0
    0.2413    3.9445   -1.4388 C   0  0  0  0  0  0  0  0  0  0  0  0
    2.0386    1.7530   -0.6339 O   0  0  0  0  0  0  0  0  0  0  0  0
    2.6073    0.5007   -0.5591 C   0  0  0  0  0  0  0  0  0  0  0  0
    1.8451   -0.6423   -0.8102 C   0  0  0  0  0  0  0  0  0  0  0  0
    2.3980   -1.9173   -0.6135 C   0  0  0  0  0  0  0  0  0  0  0  0
    3.7653   -2.0831   -0.2605 C   0  0  0  0  0  0  0  0  0  0  0  0
    4.5036   -0.8889   -0.0706 C   0  0  0  0  0  0  0  0  0  0  0  0
    3.9527    0.3881   -0.2119 C   0  0  0  0  0  0  0  0  0  0  0  0
    4.7920    1.5593    0.0278 C   0  0  0  0  0  0  0  0  0  0  0  0
    6.0879    1.4861    0.3852 C   0  0  0  0  0  0  0  0  0  0  0  0
    6.6832    0.1321    0.5730 C   0  0  0  0  0  0  0  0  0  0  0  0
    7.8382   -0.0469    0.9389 O   0  0  0  0  0  0  0  0  0  0  0  0
    5.8585   -0.9583    0.3182 O   0  0  0  0  0  0  0  0  0  0  0  0
    6.9887    2.7179    0.6397 C   0  0  0  0  0  0  0  0  0  0  0  0
    7.3694    2.7765    2.1367 C   0  0  0  0  0  0  0  0  0  0  0  0
    8.2865    2.6579   -0.2011 C   0  0  0  0  0  0  0  0  0  0  0  0
    6.3003    4.0217    0.1882 C   0  0  0  0  0  0  0  0  0  0  0  0
    5.8636    5.0393    0.9452 C   0  0  0  0  0  0  0  0  0  0  0  0
    4.3550   -3.5157   -0.0857 C   0  0  0  0  0  0  0  0  0  0  0  0
    3.7533   -4.1275    1.2061 C   0  0  0  0  0  0  0  0  0  0  0  0
    5.8918   -3.6150    0.0878 C   0  0  0  0  0  0  0  0  0  0  0  0
    4.0987   -4.3462   -1.3545 C   0  0  0  0  0  0  0  0  0  0  0  0
    3.5005   -5.5431   -1.4470 C   0  0  0  0  0  0  0  0  0  0  0  0
    1.6269   -3.0485   -0.7095 O   0  0  0  0  0  0  0  0  0  0  0  0
    0.0637   -3.3537   -2.5087 C   0  0  0  0  0  0  0  0  0  0  0  0
   -0.0163   -5.0400   -0.3744 H   0  0  0  0  0  0  0  0  0  0  0  0
   -0.3274   -3.8622    0.8850 H   0  0  0  0  0  0  0  0  0  0  0  0
   -1.5374   -4.1202   -0.3921 H   0  0  0  0  0  0  0  0  0  0  0  0
   -0.3687   -1.4902    0.4236 H   0  0  0  0  0  0  0  0  0  0  0  0
    0.4682   -0.6628   -2.4035 H   0  0  0  0  0  0  0  0  0  0  0  0
   -0.1998    1.3360   -2.1078 H   0  0  0  0  0  0  0  0  0  0  0  0
    0.6452    1.3155    0.8353 H   0  0  0  0  0  0  0  0  0  0  0  0
   -4.0419   -2.3744   -0.8505 H   0  0  0  0  0  0  0  0  0  0  0  0
   -7.8568   -4.0668    1.0981 H   0  0  0  0  0  0  0  0  0  0  0  0
   -6.4414   -3.3108    1.8348 H   0  0  0  0  0  0  0  0  0  0  0  0
   -7.9225   -2.3824    1.5999 H   0  0  0  0  0  0  0  0  0  0  0  0
   -5.2035   -4.2939   -0.1401 H   0  0  0  0  0  0  0  0  0  0  0  0
   -6.7036   -4.8387   -0.8896 H   0  0  0  0  0  0  0  0  0  0  0  0
   -5.5988   -3.8133   -1.8025 H   0  0  0  0  0  0  0  0  0  0  0  0
   -7.5052   -2.1946   -2.2860 H   0  0  0  0  0  0  0  0  0  0  0  0
   -9.8606   -2.2394   -1.9045 H   0  0  0  0  0  0  0  0  0  0  0  0
   -9.6268   -2.6905   -0.1266 H   0  0  0  0  0  0  0  0  0  0  0  0
   -2.4800    4.2698    2.0274 H   0  0  0  0  0  0  0  0  0  0  0  0
   -2.8371    4.9789    0.4306 H   0  0  0  0  0  0  0  0  0  0  0  0
   -3.8634    5.3335    1.8054 H   0  0  0  0  0  0  0  0  0  0  0  0
   -5.9973    3.1358   -0.2880 H   0  0  0  0  0  0  0  0  0  0  0  0
   -4.7022    4.0923   -1.0009 H   0  0  0  0  0  0  0  0  0  0  0  0
   -5.6927    4.7677    0.2963 H   0  0  0  0  0  0  0  0  0  0  0  0
   -4.0961    2.5488    3.0753 H   0  0  0  0  0  0  0  0  0  0  0  0
   -6.8540    3.4401    2.0632 H   0  0  0  0  0  0  0  0  0  0  0  0
   -6.3898    2.7599    3.7186 H   0  0  0  0  0  0  0  0  0  0  0  0
    0.5773    3.4492    1.9625 H   0  0  0  0  0  0  0  0  0  0  0  0
    0.2920    4.9420    1.0904 H   0  0  0  0  0  0  0  0  0  0  0  0
    1.8107    4.0546    0.8337 H   0  0  0  0  0  0  0  0  0  0  0  0
   -0.1532    4.9616   -1.3254 H   0  0  0  0  0  0  0  0  0  0  0  0
   -0.3229    3.5035   -2.2664 H   0  0  0  0  0  0  0  0  0  0  0  0
    1.2931    4.0191   -1.7320 H   0  0  0  0  0  0  0  0  0  0  0  0
    4.3026    2.5199   -0.0992 H   0  0  0  0  0  0  0  0  0  0  0  0
    6.4795    2.7918    2.7775 H   0  0  0  0  0  0  0  0  0  0  0  0
    7.9650    3.6692    2.3635 H   0  0  0  0  0  0  0  0  0  0  0  0
    7.9736    1.9172    2.4454 H   0  0  0  0  0  0  0  0  0  0  0  0
    8.0709    2.4519   -1.2568 H   0  0  0  0  0  0  0  0  0  0  0  0
    8.9827    1.8906    0.1500 H   0  0  0  0  0  0  0  0  0  0  0  0
    8.8338    3.6084   -0.1558 H   0  0  0  0  0  0  0  0  0  0  0  0
    6.1575    4.1162   -0.8904 H   0  0  0  0  0  0  0  0  0  0  0  0
    5.9515    5.0504    2.0262 H   0  0  0  0  0  0  0  0  0  0  0  0
    5.3963    5.9053    0.4845 H   0  0  0  0  0  0  0  0  0  0  0  0
    4.1842   -5.1126    1.4231 H   0  0  0  0  0  0  0  0  0  0  0  0
    3.9586   -3.4858    2.0720 H   0  0  0  0  0  0  0  0  0  0  0  0
    2.6679   -4.2580    1.1553 H   0  0  0  0  0  0  0  0  0  0  0  0
    6.4321   -3.1323   -0.7356 H   0  0  0  0  0  0  0  0  0  0  0  0
    6.2267   -3.1782    1.0354 H   0  0  0  0  0  0  0  0  0  0  0  0
    6.2215   -4.6626    0.1098 H   0  0  0  0  0  0  0  0  0  0  0  0
    4.4582   -3.8945   -2.2798 H   0  0  0  0  0  0  0  0  0  0  0  0
    3.1093   -6.0672   -0.5823 H   0  0  0  0  0  0  0  0  0  0  0  0
    3.3826   -6.0254   -2.4126 H   0  0  0  0  0  0  0  0  0  0  0  0
    0.6452   -2.6978   -3.1639 H   0  0  0  0  0  0  0  0  0  0  0  0
   -0.9826   -3.3314   -2.8289 H   0  0  0  0  0  0  0  0  0  0  0  0
    0.4524   -4.3636   -2.6871 H   0  0  0  0  0  0  0  0  0  0  0  0
  1  2  1  0
  2  3  1  0
  3  4  1  0
  4  5  1  0
  5  6  1  0
  6  7  1  0
  7  8  1  0
  8  9  1  0
  9 10  1  0
 10 11  2  0
 11 12  1  0
 12 13  1  0
 13 14  2  0
 14 15  1  0
 15 16  2  0
 15 17  1  0
 14 18  1  0
 18 19  1  0
 18 20  1  0
 18 21  1  0
 21 22  2  0
 12 23  2  0
 23 24  1  0
 23 25  1  0
 10 26  1  0
 26 27  1  0
 26 28  1  0
 26 29  1  0
 29 30  2  0
  7 31  1  0
  7 32  1  0
  6 33  1  0
 33 34  1  0
 34 35  1  0
 35 36  2  0
 36 37  1  0
 37 38  2  0
 38 39  1  0
 39 40  1  0
 40 41  2  0
 41 42  1  0
 42 43  2  0
 42 44  1  0
 41 45  1  0
 45 46  1  0
 45 47  1  0
 45 48  1  0
 48 49  2  0
 37 50  1  0
 50 51  1  0
 50 52  1  0
 50 53  1  0
 53 54  2  0
 36 55  1  0
  2 56  1  0
 55  2  1  0
 25  3  1  0
 35  4  1  0
 24  5  1  0
 24  9  2  0
 17 11  1  0
 39 34  2  0
 44 38  1  0
  1 57  1  0
  1 58  1  0
  1 59  1  0
  3 60  1  0
  4 61  1  0
  5 62  1  0
  6 63  1  0
 13 64  1  0
 19 65  1  0
 19 66  1  0
 19 67  1  0
 20 68  1  0
 20 69  1  0
 20 70  1  0
 21 71  1  0
 22 72  1  0
 22 73  1  0
 27 74  1  0
 27 75  1  0
 27 76  1  0
 28 77  1  0
 28 78  1  0
 28 79  1  0
 29 80  1  0
 30 81  1  0
 30 82  1  0
 31 83  1  0
 31 84  1  0
 31 85  1  0
 32 86  1  0
 32 87  1  0
 32 88  1  0
 40 89  1  0
 46 90  1  0
 46 91  1  0
 46 92  1  0
 47 93  1  0
 47 94  1  0
 47 95  1  0
 48 96  1  0
 49 97  1  0
 49 98  1  0
 51 99  1  0
 51100  1  0
 51101  1  0
 52102  1  0
 52103  1  0
 52104  1  0
 53105  1  0
 54106  1  0
 54107  1  0
 56108  1  0
 56109  1  0
 56110  1  0
M  END
>  <Name>  (772) 
Claudimerin-A

>  <PubChem ID>  (772) 
10557046

>  <CDB ID>  (772) 
CDB0772

>  <Smiles>  (772) 
CC1(C2C3C4C(C(OC5=C(C6=C(C=C(C(=O)O6)C(C)(C)C=C)C(=C45)O2)C(C)(C)C=C)(C)C)OC7=C3C(=C(C8=C7C=C(C(=O)O8)C(C)(C)C=C)C(C)(C)C=C)O1)C

>  <Chemical class>  (772) 
Biscoumarins

>  <Natural source>  (772) 
Citrus hassaku

>  <Molecular Formula>  (772) 
C48H54O8

>  <InChI-Key>  (772) 
WJAGAVCAFLENPA-UHFFFAOYSA-N

>  <Total Molweight>  (772) 
758.949

>  <cLogP>  (772) 
12.32

>  <cLogS>  (772) 
-11.302

>  <H-Acceptors>  (772) 
8

>  <H-Donors>  (772) 
0

>  <Rotatable Bonds>  (772) 
8

>  <Polar Surface Area>  (772) 
89.52

$$$$
CDB0773
     RDKit          3D

110117  0  0  0  0  0  0  0  0999 V2000
   -0.4642   -4.0573   -0.1850 C   0  0  0  0  0  0  0  0  0  0  0  0
    0.2216   -2.9688   -1.0283 C   0  0  0  0  0  0  0  0  0  0  0  0
   -0.3971   -1.5962   -0.6741 C   0  0  0  0  0  0  0  0  0  0  0  0
    0.4418   -0.5088   -1.3159 C   0  0  0  0  0  0  0  0  0  0  0  0
   -0.1687    0.8751   -1.1110 C   0  0  0  0  0  0  0  0  0  0  0  0
    0.6745    1.7305   -0.1864 C   0  0  0  0  0  0  0  0  0  0  0  0
    0.0605    3.1481   -0.1357 C   0  0  0  0  0  0  0  0  0  0  0  0
   -1.3512    3.1415    0.1682 O   0  0  0  0  0  0  0  0  0  0  0  0
   -2.1213    2.0282   -0.0236 C   0  0  0  0  0  0  0  0  0  0  0  0
   -3.4772    2.0698    0.3736 C   0  0  0  0  0  0  0  0  0  0  0  0
   -4.2221    0.8722    0.1703 C   0  0  0  0  0  0  0  0  0  0  0  0
   -3.6797   -0.3081   -0.3340 C   0  0  0  0  0  0  0  0  0  0  0  0
   -4.5300   -1.4880   -0.4604 C   0  0  0  0  0  0  0  0  0  0  0  0
   -5.8341   -1.4973   -0.1278 C   0  0  0  0  0  0  0  0  0  0  0  0
   -6.4422   -0.2358    0.3967 C   0  0  0  0  0  0  0  0  0  0  0  0
   -7.6191   -0.1406    0.7232 O   0  0  0  0  0  0  0  0  0  0  0  0
   -5.5972    0.8625    0.5092 O   0  0  0  0  0  0  0  0  0  0  0  0
   -6.7555   -2.7295   -0.2572 C   0  0  0  0  0  0  0  0  0  0  0  0
   -7.2755   -3.1375    1.1437 C   0  0  0  0  0  0  0  0  0  0  0  0
   -6.0199   -3.9842   -0.8039 C   0  0  0  0  0  0  0  0  0  0  0  0
   -7.8537   -2.4461   -1.2834 C   0  0  0  0  0  0  0  0  0  0  0  0
   -9.1801   -2.4699   -1.0901 C   0  0  0  0  0  0  0  0  0  0  0  0
   -2.3315   -0.3142   -0.6787 C   0  0  0  0  0  0  0  0  0  0  0  0
   -1.5716    0.8579   -0.5819 C   0  0  0  0  0  0  0  0  0  0  0  0
   -1.7607   -1.4912   -1.1108 O   0  0  0  0  0  0  0  0  0  0  0  0
   -4.1823    3.3180    0.9852 C   0  0  0  0  0  0  0  0  0  0  0  0
   -3.2824    4.5331    1.3275 C   0  0  0  0  0  0  0  0  0  0  0  0
   -5.2029    3.8512   -0.0548 C   0  0  0  0  0  0  0  0  0  0  0  0
   -4.7989    2.9481    2.3433 C   0  0  0  0  0  0  0  0  0  0  0  0
   -6.0797    3.0643    2.7235 C   0  0  0  0  0  0  0  0  0  0  0  0
    0.7337    3.9430    0.9964 C   0  0  0  0  0  0  0  0  0  0  0  0
    0.2413    3.9445   -1.4388 C   0  0  0  0  0  0  0  0  0  0  0  0
    2.0386    1.7530   -0.6339 O   0  0  0  0  0  0  0  0  0  0  0  0
    2.6073    0.5007   -0.5591 C   0  0  0  0  0  0  0  0  0  0  0  0
    1.8451   -0.6423   -0.8102 C   0  0  0  0  0  0  0  0  0  0  0  0
    2.3980   -1.9173   -0.6135 C   0  0  0  0  0  0  0  0  0  0  0  0
    3.7653   -2.0831   -0.2605 C   0  0  0  0  0  0  0  0  0  0  0  0
    4.5036   -0.8889   -0.0706 C   0  0  0  0  0  0  0  0  0  0  0  0
    3.9527    0.3881   -0.2119 C   0  0  0  0  0  0  0  0  0  0  0  0
    4.7920    1.5593    0.0278 C   0  0  0  0  0  0  0  0  0  0  0  0
    6.0879    1.4861    0.3852 C   0  0  0  0  0  0  0  0  0  0  0  0
    6.6832    0.1321    0.5730 C   0  0  0  0  0  0  0  0  0  0  0  0
    7.8382   -0.0469    0.9389 O   0  0  0  0  0  0  0  0  0  0  0  0
    5.8585   -0.9583    0.3182 O   0  0  0  0  0  0  0  0  0  0  0  0
    6.9887    2.7179    0.6397 C   0  0  0  0  0  0  0  0  0  0  0  0
    7.3694    2.7765    2.1367 C   0  0  0  0  0  0  0  0  0  0  0  0
    8.2865    2.6579   -0.2011 C   0  0  0  0  0  0  0  0  0  0  0  0
    6.3003    4.0217    0.1882 C   0  0  0  0  0  0  0  0  0  0  0  0
    5.8636    5.0393    0.9452 C   0  0  0  0  0  0  0  0  0  0  0  0
    4.3550   -3.5157   -0.0857 C   0  0  0  0  0  0  0  0  0  0  0  0
    3.7533   -4.1275    1.2061 C   0  0  0  0  0  0  0  0  0  0  0  0
    5.8918   -3.6150    0.0878 C   0  0  0  0  0  0  0  0  0  0  0  0
    4.0987   -4.3462   -1.3545 C   0  0  0  0  0  0  0  0  0  0  0  0
    3.5005   -5.5431   -1.4470 C   0  0  0  0  0  0  0  0  0  0  0  0
    1.6269   -3.0485   -0.7095 O   0  0  0  0  0  0  0  0  0  0  0  0
    0.0637   -3.3537   -2.5087 C   0  0  0  0  0  0  0  0  0  0  0  0
   -0.0163   -5.0400   -0.3744 H   0  0  0  0  0  0  0  0  0  0  0  0
   -0.3274   -3.8622    0.8850 H   0  0  0  0  0  0  0  0  0  0  0  0
   -1.5374   -4.1202   -0.3921 H   0  0  0  0  0  0  0  0  0  0  0  0
   -0.3687   -1.4902    0.4236 H   0  0  0  0  0  0  0  0  0  0  0  0
    0.4682   -0.6628   -2.4035 H   0  0  0  0  0  0  0  0  0  0  0  0
   -0.1998    1.3360   -2.1078 H   0  0  0  0  0  0  0  0  0  0  0  0
    0.6452    1.3155    0.8353 H   0  0  0  0  0  0  0  0  0  0  0  0
   -4.0419   -2.3744   -0.8505 H   0  0  0  0  0  0  0  0  0  0  0  0
   -7.8568   -4.0668    1.0981 H   0  0  0  0  0  0  0  0  0  0  0  0
   -6.4414   -3.3108    1.8348 H   0  0  0  0  0  0  0  0  0  0  0  0
   -7.9225   -2.3824    1.5999 H   0  0  0  0  0  0  0  0  0  0  0  0
   -5.2035   -4.2939   -0.1401 H   0  0  0  0  0  0  0  0  0  0  0  0
   -6.7036   -4.8387   -0.8896 H   0  0  0  0  0  0  0  0  0  0  0  0
   -5.5988   -3.8133   -1.8025 H   0  0  0  0  0  0  0  0  0  0  0  0
   -7.5052   -2.1946   -2.2860 H   0  0  0  0  0  0  0  0  0  0  0  0
   -9.8606   -2.2394   -1.9045 H   0  0  0  0  0  0  0  0  0  0  0  0
   -9.6268   -2.6905   -0.1266 H   0  0  0  0  0  0  0  0  0  0  0  0
   -2.4800    4.2698    2.0274 H   0  0  0  0  0  0  0  0  0  0  0  0
   -2.8371    4.9789    0.4306 H   0  0  0  0  0  0  0  0  0  0  0  0
   -3.8634    5.3335    1.8054 H   0  0  0  0  0  0  0  0  0  0  0  0
   -5.9973    3.1358   -0.2880 H   0  0  0  0  0  0  0  0  0  0  0  0
   -4.7022    4.0923   -1.0009 H   0  0  0  0  0  0  0  0  0  0  0  0
   -5.6927    4.7677    0.2963 H   0  0  0  0  0  0  0  0  0  0  0  0
   -4.0961    2.5488    3.0753 H   0  0  0  0  0  0  0  0  0  0  0  0
   -6.8540    3.4401    2.0632 H   0  0  0  0  0  0  0  0  0  0  0  0
   -6.3898    2.7599    3.7186 H   0  0  0  0  0  0  0  0  0  0  0  0
    0.5773    3.4492    1.9625 H   0  0  0  0  0  0  0  0  0  0  0  0
    0.2920    4.9420    1.0904 H   0  0  0  0  0  0  0  0  0  0  0  0
    1.8107    4.0546    0.8337 H   0  0  0  0  0  0  0  0  0  0  0  0
   -0.1532    4.9616   -1.3254 H   0  0  0  0  0  0  0  0  0  0  0  0
   -0.3229    3.5035   -2.2664 H   0  0  0  0  0  0  0  0  0  0  0  0
    1.2931    4.0191   -1.7320 H   0  0  0  0  0  0  0  0  0  0  0  0
    4.3026    2.5199   -0.0992 H   0  0  0  0  0  0  0  0  0  0  0  0
    6.4795    2.7918    2.7775 H   0  0  0  0  0  0  0  0  0  0  0  0
    7.9650    3.6692    2.3635 H   0  0  0  0  0  0  0  0  0  0  0  0
    7.9736    1.9172    2.4454 H   0  0  0  0  0  0  0  0  0  0  0  0
    8.0709    2.4519   -1.2568 H   0  0  0  0  0  0  0  0  0  0  0  0
    8.9827    1.8906    0.1500 H   0  0  0  0  0  0  0  0  0  0  0  0
    8.8338    3.6084   -0.1558 H   0  0  0  0  0  0  0  0  0  0  0  0
    6.1575    4.1162   -0.8904 H   0  0  0  0  0  0  0  0  0  0  0  0
    5.9515    5.0504    2.0262 H   0  0  0  0  0  0  0  0  0  0  0  0
    5.3963    5.9053    0.4845 H   0  0  0  0  0  0  0  0  0  0  0  0
    4.1842   -5.1126    1.4231 H   0  0  0  0  0  0  0  0  0  0  0  0
    3.9586   -3.4858    2.0720 H   0  0  0  0  0  0  0  0  0  0  0  0
    2.6679   -4.2580    1.1553 H   0  0  0  0  0  0  0  0  0  0  0  0
    6.4321   -3.1323   -0.7356 H   0  0  0  0  0  0  0  0  0  0  0  0
    6.2267   -3.1782    1.0354 H   0  0  0  0  0  0  0  0  0  0  0  0
    6.2215   -4.6626    0.1098 H   0  0  0  0  0  0  0  0  0  0  0  0
    4.4582   -3.8945   -2.2798 H   0  0  0  0  0  0  0  0  0  0  0  0
    3.1093   -6.0672   -0.5823 H   0  0  0  0  0  0  0  0  0  0  0  0
    3.3826   -6.0254   -2.4126 H   0  0  0  0  0  0  0  0  0  0  0  0
    0.6452   -2.6978   -3.1639 H   0  0  0  0  0  0  0  0  0  0  0  0
   -0.9826   -3.3314   -2.8289 H   0  0  0  0  0  0  0  0  0  0  0  0
    0.4524   -4.3636   -2.6871 H   0  0  0  0  0  0  0  0  0  0  0  0
  1  2  1  0
  2  3  1  0
  3  4  1  0
  4  5  1  0
  5  6  1  0
  6  7  1  0
  7  8  1  0
  8  9  1  0
  9 10  1  0
 10 11  2  0
 11 12  1  0
 12 13  1  0
 13 14  2  0
 14 15  1  0
 15 16  2  0
 15 17  1  0
 14 18  1  0
 18 19  1  0
 18 20  1  0
 18 21  1  0
 21 22  2  0
 12 23  2  0
 23 24  1  0
 23 25  1  0
 10 26  1  0
 26 27  1  0
 26 28  1  0
 26 29  1  0
 29 30  2  0
  7 31  1  0
  7 32  1  0
  6 33  1  0
 33 34  1  0
 34 35  1  0
 35 36  2  0
 36 37  1  0
 37 38  2  0
 38 39  1  0
 39 40  1  0
 40 41  2  0
 41 42  1  0
 42 43  2  0
 42 44  1  0
 41 45  1  0
 45 46  1  0
 45 47  1  0
 45 48  1  0
 48 49  2  0
 37 50  1  0
 50 51  1  0
 50 52  1  0
 50 53  1  0
 53 54  2  0
 36 55  1  0
  2 56  1  0
 55  2  1  0
 25  3  1  0
 35  4  1  0
 24  5  1  0
 24  9  2  0
 17 11  1  0
 39 34  2  0
 44 38  1  0
  1 57  1  0
  1 58  1  0
  1 59  1  0
  3 60  1  0
  4 61  1  0
  5 62  1  0
  6 63  1  0
 13 64  1  0
 19 65  1  0
 19 66  1  0
 19 67  1  0
 20 68  1  0
 20 69  1  0
 20 70  1  0
 21 71  1  0
 22 72  1  0
 22 73  1  0
 27 74  1  0
 27 75  1  0
 27 76  1  0
 28 77  1  0
 28 78  1  0
 28 79  1  0
 29 80  1  0
 30 81  1  0
 30 82  1  0
 31 83  1  0
 31 84  1  0
 31 85  1  0
 32 86  1  0
 32 87  1  0
 32 88  1  0
 40 89  1  0
 46 90  1  0
 46 91  1  0
 46 92  1  0
 47 93  1  0
 47 94  1  0
 47 95  1  0
 48 96  1  0
 49 97  1  0
 49 98  1  0
 51 99  1  0
 51100  1  0
 51101  1  0
 52102  1  0
 52103  1  0
 52104  1  0
 53105  1  0
 54106  1  0
 54107  1  0
 56108  1  0
 56109  1  0
 56110  1  0
M  END
>  <Name>  (773) 
Claudimerin-B

>  <PubChem ID>  (773) 
10700309

>  <CDB ID>  (773) 
CDB0773

>  <Smiles>  (773) 
CC1(C2C3C4C(C(OC5=C(C6=C(C=C(C(=O)O6)C(C)(C)C=C)C(=C45)O2)C(C)(C)C=C)(C)C)OC7=C3C(=C(C8=C7C=C(C(=O)O8)C(C)(C)C=C)C(C)(C)C=C)O1)C

>  <Chemical class>  (773) 
Biscoumarins

>  <Natural source>  (773) 
Citrus hassaku

>  <Molecular Formula>  (773) 
C48H54O8

>  <InChI-Key>  (773) 
WJAGAVCAFLENPA-UHFFFAOYSA-N

>  <Total Molweight>  (773) 
758.949

>  <cLogP>  (773) 
12.32

>  <cLogS>  (773) 
-11.302

>  <H-Acceptors>  (773) 
8

>  <H-Donors>  (773) 
0

>  <Rotatable Bonds>  (773) 
8

>  <Polar Surface Area>  (773) 
89.52

$$$$
CDB0774
     RDKit          3D

105114  0  0  0  0  0  0  0  0999 V2000
    6.9509    0.3749   -0.5359 C   0  0  0  0  0  0  0  0  0  0  0  0
    5.4460    0.3561   -0.5032 C   0  0  0  0  0  0  0  0  0  0  0  0
    4.7423    0.5764   -1.6293 C   0  0  0  0  0  0  0  0  0  0  0  0
    4.8089    0.0129    0.8449 C   0  0  0  0  0  0  0  0  0  0  0  0
    5.0412    1.0757    1.9560 C   0  0  0  0  0  0  0  0  0  0  0  0
    4.1116    2.1700    2.0248 O   0  0  0  0  0  0  0  0  0  0  0  0
    4.0511    2.9602    0.9140 C   0  0  0  0  0  0  0  0  0  0  0  0
    5.1172    3.7258    0.4215 C   0  0  0  0  0  0  0  0  0  0  0  0
    5.0016    4.5308   -0.7179 C   0  0  0  0  0  0  0  0  0  0  0  0
    3.7794    4.6127   -1.4026 C   0  0  0  0  0  0  0  0  0  0  0  0
    2.6762    3.8900   -0.9106 C   0  0  0  0  0  0  0  0  0  0  0  0
    2.8405    3.1060    0.2279 C   0  0  0  0  0  0  0  0  0  0  0  0
    1.6568    2.5051    0.5505 O   0  0  0  0  0  0  0  0  0  0  0  0
    0.7521    2.8697   -0.3930 C   0  0  0  0  0  0  0  0  0  0  0  0
    1.3222    3.7255   -1.3057 C   0  0  0  0  0  0  0  0  0  0  0  0
    6.1614    5.2806   -1.1795 C   0  0  0  0  0  0  0  0  0  0  0  0
    7.3149    5.2003   -0.5109 C   0  0  0  0  0  0  0  0  0  0  0  0
    7.4674    4.3745    0.6965 C   0  0  0  0  0  0  0  0  0  0  0  0
    8.5439    4.3065    1.2781 O   0  0  0  0  0  0  0  0  0  0  0  0
    6.3451    3.6858    1.1262 O   0  0  0  0  0  0  0  0  0  0  0  0
    3.4083   -0.1976    0.6814 O   0  0  0  0  0  0  0  0  0  0  0  0
    2.8130   -1.4676    1.0161 C   0  0  0  0  0  0  0  0  0  0  0  0
    3.0291   -1.7676    2.5070 C   0  0  0  0  0  0  0  0  0  0  0  0
    3.4245   -2.5785    0.1472 C   0  0  0  0  0  0  0  0  0  0  0  0
    1.2875   -1.2441    0.7131 C   0  0  0  0  0  0  0  0  0  0  0  0
    0.2963   -2.2608    1.2978 C   0  0  0  0  0  0  0  0  0  0  0  0
    0.5242   -3.5505    0.7118 O   0  0  0  0  0  0  0  0  0  0  0  0
   -0.4093   -4.4403    1.1872 C   0  0  0  0  0  0  0  0  0  0  0  0
   -0.1355   -5.2781    2.2687 C   0  0  0  0  0  0  0  0  0  0  0  0
   -1.0437   -6.1998    2.7792 C   0  0  0  0  0  0  0  0  0  0  0  0
   -2.3133   -6.3021    2.1783 C   0  0  0  0  0  0  0  0  0  0  0  0
   -2.6197   -5.4735    1.0835 C   0  0  0  0  0  0  0  0  0  0  0  0
   -1.6708   -4.5657    0.5886 C   0  0  0  0  0  0  0  0  0  0  0  0
   -1.9118   -3.7938   -0.5208 O   0  0  0  0  0  0  0  0  0  0  0  0
   -3.2833   -3.4986   -0.8063 C   0  0  0  0  0  0  0  0  0  0  0  0
   -4.2424   -4.5874   -0.4252 C   0  0  0  0  0  0  0  0  0  0  0  0
   -3.9322   -5.5492    0.4516 C   0  0  0  0  0  0  0  0  0  0  0  0
   -3.6667   -2.3046   -0.1095 O   0  0  0  0  0  0  0  0  0  0  0  0
   -4.0743   -1.3715   -1.1182 C   0  0  0  0  0  0  0  0  0  0  0  0
   -3.4206   -1.8693   -2.4058 C   0  0  0  0  0  0  0  0  0  0  0  0
   -3.4330   -3.2938   -2.2198 O   0  0  0  0  0  0  0  0  0  0  0  0
   -1.9738   -1.4144   -2.6199 C   0  0  0  0  0  0  0  0  0  0  0  0
   -4.2485   -1.5555   -3.6512 C   0  0  0  0  0  0  0  0  0  0  0  0
   -3.7370    0.0497   -0.6718 C   0  0  0  0  0  0  0  0  0  0  0  0
   -4.0837    0.9923   -1.6888 O   0  0  0  0  0  0  0  0  0  0  0  0
   -4.8858    2.0058   -1.2227 C   0  0  0  0  0  0  0  0  0  0  0  0
   -4.4842    3.3373   -1.3799 C   0  0  0  0  0  0  0  0  0  0  0  0
   -5.2801    4.4128   -0.9766 C   0  0  0  0  0  0  0  0  0  0  0  0
   -6.5425    4.1781   -0.4078 C   0  0  0  0  0  0  0  0  0  0  0  0
   -6.9915    2.8496   -0.2674 C   0  0  0  0  0  0  0  0  0  0  0  0
   -6.1607    1.8120   -0.6825 C   0  0  0  0  0  0  0  0  0  0  0  0
   -6.7792    0.6119   -0.4828 O   0  0  0  0  0  0  0  0  0  0  0  0
   -7.9920    0.8738    0.0679 C   0  0  0  0  0  0  0  0  0  0  0  0
   -8.1714    2.2288    0.2230 C   0  0  0  0  0  0  0  0  0  0  0  0
   -4.7813    5.7679   -1.1599 C   0  0  0  0  0  0  0  0  0  0  0  0
   -3.5826    5.9639   -1.7168 C   0  0  0  0  0  0  0  0  0  0  0  0
   -2.7259    4.8522   -2.1611 C   0  0  0  0  0  0  0  0  0  0  0  0
   -1.6357    5.0712   -2.6764 O   0  0  0  0  0  0  0  0  0  0  0  0
   -3.2141    3.5706   -1.9614 O   0  0  0  0  0  0  0  0  0  0  0  0
   -0.3809   -6.8351    3.8629 C   0  0  0  0  0  0  0  0  0  0  0  0
    0.8690   -6.2654    3.9431 C   0  0  0  0  0  0  0  0  0  0  0  0
    1.0261   -5.3177    2.9833 O   0  0  0  0  0  0  0  0  0  0  0  0
    1.0515   -1.1627   -0.7085 O   0  0  0  0  0  0  0  0  0  0  0  0
    7.3475    1.1773    0.0917 H   0  0  0  0  0  0  0  0  0  0  0  0
    7.3502   -0.5788   -0.1758 H   0  0  0  0  0  0  0  0  0  0  0  0
    7.3380    0.5309   -1.5487 H   0  0  0  0  0  0  0  0  0  0  0  0
    5.2221    0.7967   -2.5766 H   0  0  0  0  0  0  0  0  0  0  0  0
    3.6544    0.5444   -1.6305 H   0  0  0  0  0  0  0  0  0  0  0  0
    5.3031   -0.9065    1.1784 H   0  0  0  0  0  0  0  0  0  0  0  0
    6.0745    1.4342    1.9814 H   0  0  0  0  0  0  0  0  0  0  0  0
    4.9031    0.5599    2.9145 H   0  0  0  0  0  0  0  0  0  0  0  0
    3.6685    5.2261   -2.2917 H   0  0  0  0  0  0  0  0  0  0  0  0
   -0.2344    2.4424   -0.2835 H   0  0  0  0  0  0  0  0  0  0  0  0
    0.8221    4.1680   -2.1560 H   0  0  0  0  0  0  0  0  0  0  0  0
    6.0723    5.8967   -2.0678 H   0  0  0  0  0  0  0  0  0  0  0  0
    8.1979    5.7418   -0.8272 H   0  0  0  0  0  0  0  0  0  0  0  0
    2.6110   -0.9671    3.1276 H   0  0  0  0  0  0  0  0  0  0  0  0
    2.5738   -2.7177    2.8024 H   0  0  0  0  0  0  0  0  0  0  0  0
    4.0915   -1.8350    2.7610 H   0  0  0  0  0  0  0  0  0  0  0  0
    4.4859   -2.7281    0.3701 H   0  0  0  0  0  0  0  0  0  0  0  0
    2.9348   -3.5424    0.3047 H   0  0  0  0  0  0  0  0  0  0  0  0
    3.3717   -2.3264   -0.9171 H   0  0  0  0  0  0  0  0  0  0  0  0
    1.0091   -0.2589    1.1083 H   0  0  0  0  0  0  0  0  0  0  0  0
   -0.7184   -1.9242    1.0466 H   0  0  0  0  0  0  0  0  0  0  0  0
    0.3807   -2.3097    2.3894 H   0  0  0  0  0  0  0  0  0  0  0  0
   -3.0409   -7.0102    2.5640 H   0  0  0  0  0  0  0  0  0  0  0  0
   -5.2221   -4.5650   -0.8879 H   0  0  0  0  0  0  0  0  0  0  0  0
   -4.6311   -6.3292    0.7272 H   0  0  0  0  0  0  0  0  0  0  0  0
   -5.1640   -1.4695   -1.2033 H   0  0  0  0  0  0  0  0  0  0  0  0
   -1.5041   -1.9886   -3.4267 H   0  0  0  0  0  0  0  0  0  0  0  0
   -1.9146   -0.3519   -2.8764 H   0  0  0  0  0  0  0  0  0  0  0  0
   -1.3638   -1.5809   -1.7284 H   0  0  0  0  0  0  0  0  0  0  0  0
   -3.8266   -2.0540   -4.5316 H   0  0  0  0  0  0  0  0  0  0  0  0
   -4.2961   -0.4820   -3.8545 H   0  0  0  0  0  0  0  0  0  0  0  0
   -5.2714   -1.9355   -3.5482 H   0  0  0  0  0  0  0  0  0  0  0  0
   -4.2100    0.2534    0.2989 H   0  0  0  0  0  0  0  0  0  0  0  0
   -2.6611    0.1444   -0.4802 H   0  0  0  0  0  0  0  0  0  0  0  0
   -7.1770    5.0006   -0.0897 H   0  0  0  0  0  0  0  0  0  0  0  0
   -8.6014    0.0078    0.2872 H   0  0  0  0  0  0  0  0  0  0  0  0
   -9.0478    2.7103    0.6330 H   0  0  0  0  0  0  0  0  0  0  0  0
   -5.3923    6.6059   -0.8420 H   0  0  0  0  0  0  0  0  0  0  0  0
   -3.1799    6.9577   -1.8704 H   0  0  0  0  0  0  0  0  0  0  0  0
   -0.7672   -7.6123    4.5066 H   0  0  0  0  0  0  0  0  0  0  0  0
    1.7199   -6.4147    4.5933 H   0  0  0  0  0  0  0  0  0  0  0  0
    1.0392   -2.0821   -1.0339 H   0  0  0  0  0  0  0  0  0  0  0  0
  1  2  1  0
  2  3  2  0
  2  4  1  0
  4  5  1  0
  5  6  1  0
  6  7  1  0
  7  8  1  0
  8  9  2  0
  9 10  1  0
 10 11  2  0
 11 12  1  0
 12 13  1  0
 13 14  1  0
 14 15  2  0
  9 16  1  0
 16 17  2  0
 17 18  1  0
 18 19  2  0
 18 20  1  0
  4 21  1  0
 21 22  1  0
 22 23  1  0
 22 24  1  0
 22 25  1  0
 25 26  1  0
 26 27  1  0
 27 28  1  0
 28 29  2  0
 29 30  1  0
 30 31  2  0
 31 32  1  0
 32 33  2  0
 33 34  1  0
 34 35  1  0
 35 36  1  0
 36 37  2  0
 35 38  1  0
 38 39  1  0
 39 40  1  0
 40 41  1  0
 40 42  1  0
 40 43  1  0
 39 44  1  0
 44 45  1  0
 45 46  1  0
 46 47  1  0
 47 48  2  0
 48 49  1  0
 49 50  2  0
 50 51  1  0
 51 52  1  0
 52 53  1  0
 53 54  2  0
 48 55  1  0
 55 56  2  0
 56 57  1  0
 57 58  2  0
 57 59  1  0
 30 60  1  0
 60 61  2  0
 61 62  1  0
 25 63  1  0
 12  7  2  0
 54 50  1  0
 20  8  1  0
 15 11  1  0
 33 28  1  0
 62 29  1  0
 37 32  1  0
 41 35  1  0
 51 46  2  0
 59 47  1  0
  1 64  1  0
  1 65  1  0
  1 66  1  0
  3 67  1  0
  3 68  1  0
  4 69  1  0
  5 70  1  0
  5 71  1  0
 10 72  1  0
 14 73  1  0
 15 74  1  0
 16 75  1  0
 17 76  1  0
 23 77  1  0
 23 78  1  0
 23 79  1  0
 24 80  1  0
 24 81  1  0
 24 82  1  0
 25 83  1  0
 26 84  1  0
 26 85  1  0
 31 86  1  0
 36 87  1  0
 37 88  1  0
 39 89  1  0
 42 90  1  0
 42 91  1  0
 42 92  1  0
 43 93  1  0
 43 94  1  0
 43 95  1  0
 44 96  1  0
 44 97  1  0
 49 98  1  0
 53 99  1  0
 54100  1  0
 55101  1  0
 56102  1  0
 60103  1  0
 61104  1  0
 63105  1  0
M  END
>  <Name>  (774) 
Rivulotririn A

>  <PubChem ID>  (774) 
100928217

>  <CDB ID>  (774) 
CDB0774

>  <Smiles>  (774) 
CC(=C)C(COC1=C2C(=CC3=C1OC=C3)C=CC(=O)O2)OC(C)(C)C(COC4=C5C(=CC6=C4OC7(C=C6)OC(C(O7)(C)C)COC8=C9C(=CC1=C8OC=C1)C=CC(=O)O9)C=CO5)O

>  <Chemical class>  (774) 
Biscoumarins

>  <Natural source>  (774) 
Pleurospermum rivulorum

>  <Molecular Formula>  (774) 
C48H42O15

>  <InChI-Key>  (774) 
NTWDPJZQXCEWOS-UHFFFAOYSA-N

>  <Total Molweight>  (774) 
858.846

>  <cLogP>  (774) 
8.1008

>  <cLogS>  (774) 
-11.349

>  <H-Acceptors>  (774) 
15

>  <H-Donors>  (774) 
1

>  <Rotatable Bonds>  (774) 
13

>  <Polar Surface Area>  (774) 
176.86

$$$$
CDB0775
     RDKit          3D

105114  0  0  0  0  0  0  0  0999 V2000
    6.9509    0.3749   -0.5359 C   0  0  0  0  0  0  0  0  0  0  0  0
    5.4460    0.3561   -0.5032 C   0  0  0  0  0  0  0  0  0  0  0  0
    4.7423    0.5764   -1.6293 C   0  0  0  0  0  0  0  0  0  0  0  0
    4.8089    0.0129    0.8449 C   0  0  0  0  0  0  0  0  0  0  0  0
    5.0412    1.0757    1.9560 C   0  0  0  0  0  0  0  0  0  0  0  0
    4.1116    2.1700    2.0248 O   0  0  0  0  0  0  0  0  0  0  0  0
    4.0511    2.9602    0.9140 C   0  0  0  0  0  0  0  0  0  0  0  0
    5.1172    3.7258    0.4215 C   0  0  0  0  0  0  0  0  0  0  0  0
    5.0016    4.5308   -0.7179 C   0  0  0  0  0  0  0  0  0  0  0  0
    3.7794    4.6127   -1.4026 C   0  0  0  0  0  0  0  0  0  0  0  0
    2.6762    3.8900   -0.9106 C   0  0  0  0  0  0  0  0  0  0  0  0
    2.8405    3.1060    0.2279 C   0  0  0  0  0  0  0  0  0  0  0  0
    1.6568    2.5051    0.5505 O   0  0  0  0  0  0  0  0  0  0  0  0
    0.7521    2.8697   -0.3930 C   0  0  0  0  0  0  0  0  0  0  0  0
    1.3222    3.7255   -1.3057 C   0  0  0  0  0  0  0  0  0  0  0  0
    6.1614    5.2806   -1.1795 C   0  0  0  0  0  0  0  0  0  0  0  0
    7.3149    5.2003   -0.5109 C   0  0  0  0  0  0  0  0  0  0  0  0
    7.4674    4.3745    0.6965 C   0  0  0  0  0  0  0  0  0  0  0  0
    8.5439    4.3065    1.2781 O   0  0  0  0  0  0  0  0  0  0  0  0
    6.3451    3.6858    1.1262 O   0  0  0  0  0  0  0  0  0  0  0  0
    3.4083   -0.1976    0.6814 O   0  0  0  0  0  0  0  0  0  0  0  0
    2.8130   -1.4676    1.0161 C   0  0  0  0  0  0  0  0  0  0  0  0
    3.0291   -1.7676    2.5070 C   0  0  0  0  0  0  0  0  0  0  0  0
    3.4245   -2.5785    0.1472 C   0  0  0  0  0  0  0  0  0  0  0  0
    1.2875   -1.2441    0.7131 C   0  0  0  0  0  0  0  0  0  0  0  0
    0.2963   -2.2608    1.2978 C   0  0  0  0  0  0  0  0  0  0  0  0
    0.5242   -3.5505    0.7118 O   0  0  0  0  0  0  0  0  0  0  0  0
   -0.4093   -4.4403    1.1872 C   0  0  0  0  0  0  0  0  0  0  0  0
   -0.1355   -5.2781    2.2687 C   0  0  0  0  0  0  0  0  0  0  0  0
   -1.0437   -6.1998    2.7792 C   0  0  0  0  0  0  0  0  0  0  0  0
   -2.3133   -6.3021    2.1783 C   0  0  0  0  0  0  0  0  0  0  0  0
   -2.6197   -5.4735    1.0835 C   0  0  0  0  0  0  0  0  0  0  0  0
   -1.6708   -4.5657    0.5886 C   0  0  0  0  0  0  0  0  0  0  0  0
   -1.9118   -3.7938   -0.5208 O   0  0  0  0  0  0  0  0  0  0  0  0
   -3.2833   -3.4986   -0.8063 C   0  0  0  0  0  0  0  0  0  0  0  0
   -4.2424   -4.5874   -0.4252 C   0  0  0  0  0  0  0  0  0  0  0  0
   -3.9322   -5.5492    0.4516 C   0  0  0  0  0  0  0  0  0  0  0  0
   -3.6667   -2.3046   -0.1095 O   0  0  0  0  0  0  0  0  0  0  0  0
   -4.0743   -1.3715   -1.1182 C   0  0  0  0  0  0  0  0  0  0  0  0
   -3.4206   -1.8693   -2.4058 C   0  0  0  0  0  0  0  0  0  0  0  0
   -3.4330   -3.2938   -2.2198 O   0  0  0  0  0  0  0  0  0  0  0  0
   -1.9738   -1.4144   -2.6199 C   0  0  0  0  0  0  0  0  0  0  0  0
   -4.2485   -1.5555   -3.6512 C   0  0  0  0  0  0  0  0  0  0  0  0
   -3.7370    0.0497   -0.6718 C   0  0  0  0  0  0  0  0  0  0  0  0
   -4.0837    0.9923   -1.6888 O   0  0  0  0  0  0  0  0  0  0  0  0
   -4.8858    2.0058   -1.2227 C   0  0  0  0  0  0  0  0  0  0  0  0
   -4.4842    3.3373   -1.3799 C   0  0  0  0  0  0  0  0  0  0  0  0
   -5.2801    4.4128   -0.9766 C   0  0  0  0  0  0  0  0  0  0  0  0
   -6.5425    4.1781   -0.4078 C   0  0  0  0  0  0  0  0  0  0  0  0
   -6.9915    2.8496   -0.2674 C   0  0  0  0  0  0  0  0  0  0  0  0
   -6.1607    1.8120   -0.6825 C   0  0  0  0  0  0  0  0  0  0  0  0
   -6.7792    0.6119   -0.4828 O   0  0  0  0  0  0  0  0  0  0  0  0
   -7.9920    0.8738    0.0679 C   0  0  0  0  0  0  0  0  0  0  0  0
   -8.1714    2.2288    0.2230 C   0  0  0  0  0  0  0  0  0  0  0  0
   -4.7813    5.7679   -1.1599 C   0  0  0  0  0  0  0  0  0  0  0  0
   -3.5826    5.9639   -1.7168 C   0  0  0  0  0  0  0  0  0  0  0  0
   -2.7259    4.8522   -2.1611 C   0  0  0  0  0  0  0  0  0  0  0  0
   -1.6357    5.0712   -2.6764 O   0  0  0  0  0  0  0  0  0  0  0  0
   -3.2141    3.5706   -1.9614 O   0  0  0  0  0  0  0  0  0  0  0  0
   -0.3809   -6.8351    3.8629 C   0  0  0  0  0  0  0  0  0  0  0  0
    0.8690   -6.2654    3.9431 C   0  0  0  0  0  0  0  0  0  0  0  0
    1.0261   -5.3177    2.9833 O   0  0  0  0  0  0  0  0  0  0  0  0
    1.0515   -1.1627   -0.7085 O   0  0  0  0  0  0  0  0  0  0  0  0
    7.3475    1.1773    0.0917 H   0  0  0  0  0  0  0  0  0  0  0  0
    7.3502   -0.5788   -0.1758 H   0  0  0  0  0  0  0  0  0  0  0  0
    7.3380    0.5309   -1.5487 H   0  0  0  0  0  0  0  0  0  0  0  0
    5.2221    0.7967   -2.5766 H   0  0  0  0  0  0  0  0  0  0  0  0
    3.6544    0.5444   -1.6305 H   0  0  0  0  0  0  0  0  0  0  0  0
    5.3031   -0.9065    1.1784 H   0  0  0  0  0  0  0  0  0  0  0  0
    6.0745    1.4342    1.9814 H   0  0  0  0  0  0  0  0  0  0  0  0
    4.9031    0.5599    2.9145 H   0  0  0  0  0  0  0  0  0  0  0  0
    3.6685    5.2261   -2.2917 H   0  0  0  0  0  0  0  0  0  0  0  0
   -0.2344    2.4424   -0.2835 H   0  0  0  0  0  0  0  0  0  0  0  0
    0.8221    4.1680   -2.1560 H   0  0  0  0  0  0  0  0  0  0  0  0
    6.0723    5.8967   -2.0678 H   0  0  0  0  0  0  0  0  0  0  0  0
    8.1979    5.7418   -0.8272 H   0  0  0  0  0  0  0  0  0  0  0  0
    2.6110   -0.9671    3.1276 H   0  0  0  0  0  0  0  0  0  0  0  0
    2.5738   -2.7177    2.8024 H   0  0  0  0  0  0  0  0  0  0  0  0
    4.0915   -1.8350    2.7610 H   0  0  0  0  0  0  0  0  0  0  0  0
    4.4859   -2.7281    0.3701 H   0  0  0  0  0  0  0  0  0  0  0  0
    2.9348   -3.5424    0.3047 H   0  0  0  0  0  0  0  0  0  0  0  0
    3.3717   -2.3264   -0.9171 H   0  0  0  0  0  0  0  0  0  0  0  0
    1.0091   -0.2589    1.1083 H   0  0  0  0  0  0  0  0  0  0  0  0
   -0.7184   -1.9242    1.0466 H   0  0  0  0  0  0  0  0  0  0  0  0
    0.3807   -2.3097    2.3894 H   0  0  0  0  0  0  0  0  0  0  0  0
   -3.0409   -7.0102    2.5640 H   0  0  0  0  0  0  0  0  0  0  0  0
   -5.2221   -4.5650   -0.8879 H   0  0  0  0  0  0  0  0  0  0  0  0
   -4.6311   -6.3292    0.7272 H   0  0  0  0  0  0  0  0  0  0  0  0
   -5.1640   -1.4695   -1.2033 H   0  0  0  0  0  0  0  0  0  0  0  0
   -1.5041   -1.9886   -3.4267 H   0  0  0  0  0  0  0  0  0  0  0  0
   -1.9146   -0.3519   -2.8764 H   0  0  0  0  0  0  0  0  0  0  0  0
   -1.3638   -1.5809   -1.7284 H   0  0  0  0  0  0  0  0  0  0  0  0
   -3.8266   -2.0540   -4.5316 H   0  0  0  0  0  0  0  0  0  0  0  0
   -4.2961   -0.4820   -3.8545 H   0  0  0  0  0  0  0  0  0  0  0  0
   -5.2714   -1.9355   -3.5482 H   0  0  0  0  0  0  0  0  0  0  0  0
   -4.2100    0.2534    0.2989 H   0  0  0  0  0  0  0  0  0  0  0  0
   -2.6611    0.1444   -0.4802 H   0  0  0  0  0  0  0  0  0  0  0  0
   -7.1770    5.0006   -0.0897 H   0  0  0  0  0  0  0  0  0  0  0  0
   -8.6014    0.0078    0.2872 H   0  0  0  0  0  0  0  0  0  0  0  0
   -9.0478    2.7103    0.6330 H   0  0  0  0  0  0  0  0  0  0  0  0
   -5.3923    6.6059   -0.8420 H   0  0  0  0  0  0  0  0  0  0  0  0
   -3.1799    6.9577   -1.8704 H   0  0  0  0  0  0  0  0  0  0  0  0
   -0.7672   -7.6123    4.5066 H   0  0  0  0  0  0  0  0  0  0  0  0
    1.7199   -6.4147    4.5933 H   0  0  0  0  0  0  0  0  0  0  0  0
    1.0392   -2.0821   -1.0339 H   0  0  0  0  0  0  0  0  0  0  0  0
  1  2  1  0
  2  3  2  0
  2  4  1  0
  4  5  1  0
  5  6  1  0
  6  7  1  0
  7  8  1  0
  8  9  2  0
  9 10  1  0
 10 11  2  0
 11 12  1  0
 12 13  1  0
 13 14  1  0
 14 15  2  0
  9 16  1  0
 16 17  2  0
 17 18  1  0
 18 19  2  0
 18 20  1  0
  4 21  1  0
 21 22  1  0
 22 23  1  0
 22 24  1  0
 22 25  1  0
 25 26  1  0
 26 27  1  0
 27 28  1  0
 28 29  2  0
 29 30  1  0
 30 31  2  0
 31 32  1  0
 32 33  2  0
 33 34  1  0
 34 35  1  0
 35 36  1  0
 36 37  2  0
 35 38  1  0
 38 39  1  0
 39 40  1  0
 40 41  1  0
 40 42  1  0
 40 43  1  0
 39 44  1  0
 44 45  1  0
 45 46  1  0
 46 47  1  0
 47 48  2  0
 48 49  1  0
 49 50  2  0
 50 51  1  0
 51 52  1  0
 52 53  1  0
 53 54  2  0
 48 55  1  0
 55 56  2  0
 56 57  1  0
 57 58  2  0
 57 59  1  0
 30 60  1  0
 60 61  2  0
 61 62  1  0
 25 63  1  0
 12  7  2  0
 54 50  1  0
 20  8  1  0
 15 11  1  0
 33 28  1  0
 62 29  1  0
 37 32  1  0
 41 35  1  0
 51 46  2  0
 59 47  1  0
  1 64  1  0
  1 65  1  0
  1 66  1  0
  3 67  1  0
  3 68  1  0
  4 69  1  0
  5 70  1  0
  5 71  1  0
 10 72  1  0
 14 73  1  0
 15 74  1  0
 16 75  1  0
 17 76  1  0
 23 77  1  0
 23 78  1  0
 23 79  1  0
 24 80  1  0
 24 81  1  0
 24 82  1  0
 25 83  1  0
 26 84  1  0
 26 85  1  0
 31 86  1  0
 36 87  1  0
 37 88  1  0
 39 89  1  0
 42 90  1  0
 42 91  1  0
 42 92  1  0
 43 93  1  0
 43 94  1  0
 43 95  1  0
 44 96  1  0
 44 97  1  0
 49 98  1  0
 53 99  1  0
 54100  1  0
 55101  1  0
 56102  1  0
 60103  1  0
 61104  1  0
 63105  1  0
M  END
>  <Name>  (775) 
Rivulotririn B

>  <PubChem ID>  (775) 
100928218

>  <CDB ID>  (775) 
CDB0775

>  <Smiles>  (775) 
CC(=C)C(COC1=C2C(=CC3=C1OC=C3)C=CC(=O)O2)OC(C)(C)C(COC4=C5C(=CC6=C4OC7(C=C6)OC(C(O7)(C)C)COC8=C9C(=CC1=C8OC=C1)C=CC(=O)O9)C=CO5)O

>  <Chemical class>  (775) 
Biscoumarins

>  <Natural source>  (775) 
Pleurospermum rivulorum

>  <Molecular Formula>  (775) 
C48H42O15

>  <InChI-Key>  (775) 
NTWDPJZQXCEWOS-UHFFFAOYSA-N

>  <Total Molweight>  (775) 
858.846

>  <cLogP>  (775) 
8.1008

>  <cLogS>  (775) 
-11.349

>  <H-Acceptors>  (775) 
15

>  <H-Donors>  (775) 
1

>  <Rotatable Bonds>  (775) 
13

>  <Polar Surface Area>  (775) 
176.86

$$$$
CDB0776
     RDKit          3D

 50 55  0  0  0  0  0  0  0  0999 V2000
    5.6303    0.3940    2.3042 C   0  0  0  0  0  0  0  0  0  0  0  0
    4.2916    0.7050    2.5641 C   0  0  0  0  0  0  0  0  0  0  0  0
    3.4030    0.9236    1.5081 C   0  0  0  0  0  0  0  0  0  0  0  0
    3.8498    0.8723    0.1882 C   0  0  0  0  0  0  0  0  0  0  0  0
    5.1853    0.5587   -0.0529 C   0  0  0  0  0  0  0  0  0  0  0  0
    6.0835    0.3153    0.9858 C   0  0  0  0  0  0  0  0  0  0  0  0
    7.4645   -0.0022    0.6622 C   0  0  0  0  0  0  0  0  0  0  0  0
    7.8442   -0.0574   -0.6181 C   0  0  0  0  0  0  0  0  0  0  0  0
    6.9124    0.1914   -1.7323 C   0  0  0  0  0  0  0  0  0  0  0  0
    7.2948    0.1226   -2.8945 O   0  0  0  0  0  0  0  0  0  0  0  0
    5.6003    0.4985   -1.3982 O   0  0  0  0  0  0  0  0  0  0  0  0
    2.1099    1.2531    1.8378 O   0  0  0  0  0  0  0  0  0  0  0  0
    1.0653    0.6124    1.1769 C   0  0  0  0  0  0  0  0  0  0  0  0
    1.0385   -0.7107    0.9462 C   0  0  0  0  0  0  0  0  0  0  0  0
   -0.0970   -1.3335    0.2860 C   0  0  0  0  0  0  0  0  0  0  0  0
   -1.1926   -0.5499   -0.0769 C   0  0  0  0  0  0  0  0  0  0  0  0
   -2.3362   -1.0835   -0.7046 C   0  0  0  0  0  0  0  0  0  0  0  0
   -2.3238   -2.4626   -0.9692 C   0  0  0  0  0  0  0  0  0  0  0  0
   -1.2321   -3.2610   -0.6224 C   0  0  0  0  0  0  0  0  0  0  0  0
   -0.1215   -2.6998    0.0090 C   0  0  0  0  0  0  0  0  0  0  0  0
   -3.3582   -3.1136   -1.5852 O   0  0  0  0  0  0  0  0  0  0  0  0
   -3.4789   -0.2203   -1.0583 C   0  0  0  0  0  0  0  0  0  0  0  0
   -3.8031    0.0935   -2.3884 C   0  0  0  0  0  0  0  0  0  0  0  0
   -4.8884    0.9154   -2.7001 C   0  0  0  0  0  0  0  0  0  0  0  0
   -5.6794    1.4542   -1.6845 C   0  0  0  0  0  0  0  0  0  0  0  0
   -5.3907    1.1635   -0.3522 C   0  0  0  0  0  0  0  0  0  0  0  0
   -4.3059    0.3314   -0.0592 C   0  0  0  0  0  0  0  0  0  0  0  0
   -4.0193    0.0088    1.2921 O   0  0  0  0  0  0  0  0  0  0  0  0
   -4.7614    0.5155    2.3482 C   0  0  0  0  0  0  0  0  0  0  0  0
   -4.5149    0.2408    3.5164 O   0  0  0  0  0  0  0  0  0  0  0  0
   -5.8833    1.4019    2.0000 C   0  0  0  0  0  0  0  0  0  0  0  0
   -6.1881    1.7077    0.7356 C   0  0  0  0  0  0  0  0  0  0  0  0
   -3.0989   -0.3834   -3.4609 O   0  0  0  0  0  0  0  0  0  0  0  0
   -1.1633    0.8416    0.1812 O   0  0  0  0  0  0  0  0  0  0  0  0
   -0.0937    1.4709    0.8076 C   0  0  0  0  0  0  0  0  0  0  0  0
   -0.1055    2.6782    1.0242 O   0  0  0  0  0  0  0  0  0  0  0  0
    6.3068    0.2223    3.1380 H   0  0  0  0  0  0  0  0  0  0  0  0
    3.9412    0.7768    3.5912 H   0  0  0  0  0  0  0  0  0  0  0  0
    3.1840    1.0831   -0.6424 H   0  0  0  0  0  0  0  0  0  0  0  0
    8.1691   -0.1879    1.4654 H   0  0  0  0  0  0  0  0  0  0  0  0
    8.8636   -0.2895   -0.9017 H   0  0  0  0  0  0  0  0  0  0  0  0
    1.8582   -1.3501    1.2565 H   0  0  0  0  0  0  0  0  0  0  0  0
   -1.2531   -4.3268   -0.8391 H   0  0  0  0  0  0  0  0  0  0  0  0
    0.7142   -3.3417    0.2782 H   0  0  0  0  0  0  0  0  0  0  0  0
   -4.1095   -2.5069   -1.7030 H   0  0  0  0  0  0  0  0  0  0  0  0
   -5.1119    1.1418   -3.7403 H   0  0  0  0  0  0  0  0  0  0  0  0
   -6.5140    2.0992   -1.9488 H   0  0  0  0  0  0  0  0  0  0  0  0
   -6.4514    1.7926    2.8355 H   0  0  0  0  0  0  0  0  0  0  0  0
   -7.0201    2.3643    0.5048 H   0  0  0  0  0  0  0  0  0  0  0  0
   -2.3144   -0.8700   -3.1546 H   0  0  0  0  0  0  0  0  0  0  0  0
  1  2  2  0
  2  3  1  0
  3  4  2  0
  4  5  1  0
  5  6  2  0
  6  7  1  0
  7  8  2  0
  8  9  1  0
  9 10  2  0
  9 11  1  0
  3 12  1  0
 12 13  1  0
 13 14  2  0
 14 15  1  0
 15 16  2  0
 16 17  1  0
 17 18  2  0
 18 19  1  0
 19 20  2  0
 18 21  1  0
 17 22  1  0
 22 23  2  0
 23 24  1  0
 24 25  2  0
 25 26  1  0
 26 27  2  0
 27 28  1  0
 28 29  1  0
 29 30  2  0
 29 31  1  0
 31 32  2  0
 23 33  1  0
 16 34  1  0
 34 35  1  0
 35 36  2  0
  6  1  1  0
 11  5  1  0
 35 13  1  0
 20 15  1  0
 27 22  1  0
 32 26  1  0
  1 37  1  0
  2 38  1  0
  4 39  1  0
  7 40  1  0
  8 41  1  0
 14 42  1  0
 19 43  1  0
 20 44  1  0
 21 45  1  0
 24 46  1  0
 25 47  1  0
 31 48  1  0
 32 49  1  0
 33 50  1  0
M  END
>  <Name>  (776) 
Triumbelletin

>  <PubChem ID>  (776) 
14213530

>  <CDB ID>  (776) 
CDB0776

>  <Smiles>  (776) 
C1=CC(=CC2=C1C=CC(=O)O2)OC3=CC4=C(C(=C(C=C4)O)C5=C(C=CC6=C5OC(=O)C=C6)O)OC3=O

>  <Chemical class>  (776) 
Triscoumarins

>  <Natural source>  (776) 
Daphne mezereum

>  <Molecular Formula>  (776) 
C27H14O9

>  <InChI-Key>  (776) 
GDHDMCIEKMVPIP-UHFFFAOYSA-N

>  <Total Molweight>  (776) 
482.399

>  <cLogP>  (776) 
3.5864

>  <cLogS>  (776) 
-6.76

>  <H-Acceptors>  (776) 
9

>  <H-Donors>  (776) 
2

>  <Rotatable Bonds>  (776) 
3

>  <Polar Surface Area>  (776) 
128.59

$$$$
CDB0777
     RDKit          3D

 22 23  0  0  0  0  0  0  0  0999 V2000
    3.6686    0.3684   -0.8935 C   0  0  0  0  0  0  0  0  0  0  0  0
    2.4888    1.0372   -0.4607 O   0  0  0  0  0  0  0  0  0  0  0  0
    1.3486    0.2784   -0.3712 C   0  0  0  0  0  0  0  0  0  0  0  0
    0.2078    0.9788    0.0598 C   0  0  0  0  0  0  0  0  0  0  0  0
   -1.0278    0.3438    0.2006 C   0  0  0  0  0  0  0  0  0  0  0  0
   -1.1006   -1.0135   -0.0998 C   0  0  0  0  0  0  0  0  0  0  0  0
    0.0144   -1.7328   -0.5292 C   0  0  0  0  0  0  0  0  0  0  0  0
    1.2442   -1.0829   -0.6652 C   0  0  0  0  0  0  0  0  0  0  0  0
   -2.3134   -1.7217    0.0185 O   0  0  0  0  0  0  0  0  0  0  0  0
   -3.4770   -1.0910    0.4386 C   0  0  0  0  0  0  0  0  0  0  0  0
   -4.5422   -1.6871    0.5486 O   0  0  0  0  0  0  0  0  0  0  0  0
   -3.3811    0.3446    0.7519 C   0  0  0  0  0  0  0  0  0  0  0  0
   -2.2363    1.0250    0.6430 C   0  0  0  0  0  0  0  0  0  0  0  0
    0.3224    2.3178    0.3462 O   0  0  0  0  0  0  0  0  0  0  0  0
    4.4801    1.1023   -0.9119 H   0  0  0  0  0  0  0  0  0  0  0  0
    3.9519   -0.4242   -0.1932 H   0  0  0  0  0  0  0  0  0  0  0  0
    3.5500   -0.0228   -1.9093 H   0  0  0  0  0  0  0  0  0  0  0  0
   -0.0744   -2.7919   -0.7561 H   0  0  0  0  0  0  0  0  0  0  0  0
    2.0949   -1.6666   -1.0010 H   0  0  0  0  0  0  0  0  0  0  0  0
   -4.2978    0.8202    1.0779 H   0  0  0  0  0  0  0  0  0  0  0  0
   -2.1817    2.0829    0.8776 H   0  0  0  0  0  0  0  0  0  0  0  0
    1.2605    2.5349    0.1772 H   0  0  0  0  0  0  0  0  0  0  0  0
  1  2  1  0
  2  3  1  0
  3  4  2  0
  4  5  1  0
  5  6  2  0
  6  7  1  0
  7  8  2  0
  6  9  1  0
  9 10  1  0
 10 11  2  0
 10 12  1  0
 12 13  2  0
  4 14  1  0
  8  3  1  0
 13  5  1  0
  1 15  1  0
  1 16  1  0
  1 17  1  0
  7 18  1  0
  8 19  1  0
 12 20  1  0
 13 21  1  0
 14 22  1  0
M  END
>  <Name>  (777) 
Floribin

>  <PubChem ID>  (777) 
71440520

>  <CDB ID>  (777) 
CDB0777

>  <Smiles>  (777) 
COC1=C(C2=C(C=C1)OC(=O)C=C2)O

>  <Chemical class>  (777) 
Hydroxycoumarins

>  <Natural source>  (777) 
Fraxinus jioribunda

>  <Molecular Formula>  (777) 
C10H8O4

>  <InChI-Key>  (777) 
CIWXNUFLRXYBQV-UHFFFAOYSA-N

>  <Total Molweight>  (777) 
192.17

>  <cLogP>  (777) 
1.0817

>  <cLogS>  (777) 
-2.092

>  <H-Acceptors>  (777) 
4

>  <H-Donors>  (777) 
1

>  <Rotatable Bonds>  (777) 
1

>  <Polar Surface Area>  (777) 
55.76

$$$$
CDB0778
     RDKit          3D

 37 39  0  0  0  0  0  0  0  0999 V2000
    5.4731    0.6852    0.6049 C   0  0  0  0  0  0  0  0  0  0  0  0
    4.5402   -0.1693    1.2566 O   0  0  0  0  0  0  0  0  0  0  0  0
    3.3146   -0.3079    0.6574 C   0  0  0  0  0  0  0  0  0  0  0  0
    2.4218   -1.1540    1.3267 C   0  0  0  0  0  0  0  0  0  0  0  0
    1.1405   -1.3959    0.8450 C   0  0  0  0  0  0  0  0  0  0  0  0
    0.7255   -0.7771   -0.3382 C   0  0  0  0  0  0  0  0  0  0  0  0
    1.6117    0.0702   -1.0201 C   0  0  0  0  0  0  0  0  0  0  0  0
    2.9007    0.3056   -0.5240 C   0  0  0  0  0  0  0  0  0  0  0  0
   -0.6276   -1.0277   -0.8748 C   0  0  0  0  0  0  0  0  0  0  0  0
   -0.7032   -2.0695   -1.7196 C   0  0  0  0  0  0  0  0  0  0  0  0
   -1.9453   -2.5081   -2.3623 C   0  0  0  0  0  0  0  0  0  0  0  0
   -1.9519   -3.4573   -3.1373 O   0  0  0  0  0  0  0  0  0  0  0  0
   -3.0903   -1.8032   -2.0493 O   0  0  0  0  0  0  0  0  0  0  0  0
   -3.0558   -0.7034   -1.1687 C   0  0  0  0  0  0  0  0  0  0  0  0
   -1.8655   -0.2727   -0.5678 C   0  0  0  0  0  0  0  0  0  0  0  0
   -1.9391    0.8428    0.2966 C   0  0  0  0  0  0  0  0  0  0  0  0
   -3.1706    1.4810    0.5147 C   0  0  0  0  0  0  0  0  0  0  0  0
   -4.3268    1.0138   -0.1018 C   0  0  0  0  0  0  0  0  0  0  0  0
   -4.2848   -0.0806   -0.9472 C   0  0  0  0  0  0  0  0  0  0  0  0
   -5.4924    1.6739    0.1517 O   0  0  0  0  0  0  0  0  0  0  0  0
   -0.7717    1.2860    0.8627 O   0  0  0  0  0  0  0  0  0  0  0  0
   -0.8726    2.0786    2.0391 C   0  0  0  0  0  0  0  0  0  0  0  0
    2.8013   -1.7708    2.4891 O   0  0  0  0  0  0  0  0  0  0  0  0
    5.1002    1.7137    0.5581 H   0  0  0  0  0  0  0  0  0  0  0  0
    6.3918    0.6911    1.1993 H   0  0  0  0  0  0  0  0  0  0  0  0
    5.7239    0.3082   -0.3921 H   0  0  0  0  0  0  0  0  0  0  0  0
    0.4751   -2.0540    1.3959 H   0  0  0  0  0  0  0  0  0  0  0  0
    1.2973    0.5624   -1.9381 H   0  0  0  0  0  0  0  0  0  0  0  0
    3.5470    0.9731   -1.0834 H   0  0  0  0  0  0  0  0  0  0  0  0
    0.1651   -2.6661   -1.9822 H   0  0  0  0  0  0  0  0  0  0  0  0
   -3.2556    2.3559    1.1509 H   0  0  0  0  0  0  0  0  0  0  0  0
   -5.1756   -0.4568   -1.4388 H   0  0  0  0  0  0  0  0  0  0  0  0
   -6.2129    1.2436   -0.3389 H   0  0  0  0  0  0  0  0  0  0  0  0
    0.1272    2.1513    2.4780 H   0  0  0  0  0  0  0  0  0  0  0  0
   -1.5300    1.6154    2.7826 H   0  0  0  0  0  0  0  0  0  0  0  0
   -1.2028    3.0933    1.7958 H   0  0  0  0  0  0  0  0  0  0  0  0
    3.7180   -1.4707    2.6442 H   0  0  0  0  0  0  0  0  0  0  0  0
  1  2  1  0
  2  3  1  0
  3  4  2  0
  4  5  1  0
  5  6  2  0
  6  7  1  0
  7  8  2  0
  6  9  1  0
  9 10  2  0
 10 11  1  0
 11 12  2  0
 11 13  1  0
 13 14  1  0
 14 15  2  0
 15 16  1  0
 16 17  2  0
 17 18  1  0
 18 19  2  0
 18 20  1  0
 16 21  1  0
 21 22  1  0
  4 23  1  0
  8  3  1  0
 15  9  1  0
 19 14  1  0
  1 24  1  0
  1 25  1  0
  1 26  1  0
  5 27  1  0
  7 28  1  0
  8 29  1  0
 10 30  1  0
 17 31  1  0
 19 32  1  0
 20 33  1  0
 22 34  1  0
 22 35  1  0
 22 36  1  0
 23 37  1  0
M  END
>  <Name>  (778) 
Seshadrin

>  <PubChem ID>  (778) 
10358251

>  <CDB ID>  (778) 
CDB0778

>  <Smiles>  (778) 
COC1=C(C=C(C=C1)C2=CC(=O)OC3=C2C(=CC(=C3)O)OC)O

>  <Chemical class>  (778) 
Neoflavonoid

>  <Natural source>  (778) 
Dalbergia volubilis

>  <Molecular Formula>  (778) 
C17H14O6

>  <InChI-Key>  (778) 
XPCAYUFAARQBKK-UHFFFAOYSA-N

>  <Total Molweight>  (778) 
314.292

>  <cLogP>  (778) 
2.1641

>  <cLogS>  (778) 
-3.019

>  <H-Acceptors>  (778) 
6

>  <H-Donors>  (778) 
2

>  <Rotatable Bonds>  (778) 
3

>  <Polar Surface Area>  (778) 
85.22

$$$$
CDB0779
     RDKit          3D

 37 40  0  0  0  0  0  0  0  0999 V2000
   -2.4245    3.7454   -0.3093 C   0  0  0  0  0  0  0  0  0  0  0  0
   -1.7048    2.6777    0.2925 O   0  0  0  0  0  0  0  0  0  0  0  0
   -2.1335    1.4005    0.0440 C   0  0  0  0  0  0  0  0  0  0  0  0
   -1.4739    0.3678    0.7325 C   0  0  0  0  0  0  0  0  0  0  0  0
   -1.9271   -0.9507    0.5985 C   0  0  0  0  0  0  0  0  0  0  0  0
   -2.9721   -1.2748   -0.2649 C   0  0  0  0  0  0  0  0  0  0  0  0
   -3.5896   -0.2563   -0.9898 C   0  0  0  0  0  0  0  0  0  0  0  0
   -3.1788    1.0736   -0.8295 C   0  0  0  0  0  0  0  0  0  0  0  0
   -3.3969   -2.6605   -0.3830 C   0  0  0  0  0  0  0  0  0  0  0  0
   -2.7966   -3.5997    0.3537 C   0  0  0  0  0  0  0  0  0  0  0  0
   -1.7093   -3.2866    1.2954 C   0  0  0  0  0  0  0  0  0  0  0  0
   -1.1855   -4.1697    1.9635 O   0  0  0  0  0  0  0  0  0  0  0  0
   -1.3193   -1.9588    1.3787 O   0  0  0  0  0  0  0  0  0  0  0  0
   -0.4504    0.6544    1.6159 O   0  0  0  0  0  0  0  0  0  0  0  0
    0.8088    0.6307    1.0547 C   0  0  0  0  0  0  0  0  0  0  0  0
    1.5624   -0.5412    1.0798 C   0  0  0  0  0  0  0  0  0  0  0  0
    2.8482   -0.5252    0.5439 C   0  0  0  0  0  0  0  0  0  0  0  0
    3.4070    0.6347    0.0086 C   0  0  0  0  0  0  0  0  0  0  0  0
    2.6586    1.8126    0.0209 C   0  0  0  0  0  0  0  0  0  0  0  0
    1.3650    1.8115    0.5537 C   0  0  0  0  0  0  0  0  0  0  0  0
    4.7550    0.5833   -0.5321 C   0  0  0  0  0  0  0  0  0  0  0  0
    5.4293   -0.5702   -0.5070 C   0  0  0  0  0  0  0  0  0  0  0  0
    4.8598   -1.8092    0.0522 C   0  0  0  0  0  0  0  0  0  0  0  0
    5.5094   -2.8486    0.0511 O   0  0  0  0  0  0  0  0  0  0  0  0
    3.5734   -1.7337    0.5672 O   0  0  0  0  0  0  0  0  0  0  0  0
   -2.3342    3.7144   -1.3999 H   0  0  0  0  0  0  0  0  0  0  0  0
   -1.9782    4.6838    0.0339 H   0  0  0  0  0  0  0  0  0  0  0  0
   -3.4740    3.7424    0.0029 H   0  0  0  0  0  0  0  0  0  0  0  0
   -4.4066   -0.4780   -1.6729 H   0  0  0  0  0  0  0  0  0  0  0  0
   -3.7043    1.8335   -1.3996 H   0  0  0  0  0  0  0  0  0  0  0  0
   -4.1978   -2.9145   -1.0686 H   0  0  0  0  0  0  0  0  0  0  0  0
   -3.0833   -4.6427    0.2963 H   0  0  0  0  0  0  0  0  0  0  0  0
    1.1675   -1.4522    1.5161 H   0  0  0  0  0  0  0  0  0  0  0  0
    3.0690    2.7394   -0.3714 H   0  0  0  0  0  0  0  0  0  0  0  0
    0.7964    2.7363    0.5832 H   0  0  0  0  0  0  0  0  0  0  0  0
    5.1951    1.4828   -0.9476 H   0  0  0  0  0  0  0  0  0  0  0  0
    6.4358   -0.6519   -0.8989 H   0  0  0  0  0  0  0  0  0  0  0  0
  1  2  1  0
  2  3  1  0
  3  4  2  0
  4  5  1  0
  5  6  2  0
  6  7  1  0
  7  8  2  0
  6  9  1  0
  9 10  2  0
 10 11  1  0
 11 12  2  0
 11 13  1  0
  4 14  1  0
 14 15  1  0
 15 16  2  0
 16 17  1  0
 17 18  2  0
 18 19  1  0
 19 20  2  0
 18 21  1  0
 21 22  2  0
 22 23  1  0
 23 24  2  0
 23 25  1  0
  8  3  1  0
 13  5  1  0
 20 15  1  0
 25 17  1  0
  1 26  1  0
  1 27  1  0
  1 28  1  0
  7 29  1  0
  8 30  1  0
  9 31  1  0
 10 32  1  0
 16 33  1  0
 19 34  1  0
 20 35  1  0
 21 36  1  0
 22 37  1  0
M  END
>  <Name>  (779) 
Fatagarin

>  <PubChem ID>  (779) 
14216095

>  <CDB ID>  (779) 
CDB0779

>  <Smiles>  (779) 
COC1=C(C2=C(C=C1)C=CC(=O)O2)OC3=CC4=C(C=C3)C=CC(=O)O4

>  <Chemical class>  (779) 
Biscoumarins

>  <Natural source>  (779) 
Ruta oreojasme

>  <Molecular Formula>  (779) 
C19H12O6

>  <InChI-Key>  (779) 
BVMUPTMVWGAFQA-UHFFFAOYSA-N

>  <Total Molweight>  (779) 
336.298

>  <cLogP>  (779) 
2.6608

>  <cLogS>  (779) 
-5.439

>  <H-Acceptors>  (779) 
6

>  <H-Donors>  (779) 
0

>  <Rotatable Bonds>  (779) 
3

>  <Polar Surface Area>  (779) 
71.06

$$$$
CDB0780
     RDKit          3D

 44 48  0  0  0  0  0  0  0  0999 V2000
   -3.2546   -1.9524    1.1310 C   0  0  0  0  0  0  0  0  0  0  0  0
   -1.9846   -1.7721    0.2735 C   0  0  0  0  0  0  0  0  0  0  0  0
   -1.8906   -0.2603   -0.1855 C   0  0  0  0  0  0  0  0  0  0  0  0
   -1.1687   -0.0108   -1.5452 C   0  0  0  0  0  0  0  0  0  0  0  0
   -0.7129    1.4502   -1.7656 C   0  0  0  0  0  0  0  0  0  0  0  0
   -0.1344    2.1893   -0.5218 C   0  0  0  0  0  0  0  0  0  0  0  0
   -1.0612    2.0033    0.6857 C   0  0  0  0  0  0  0  0  0  0  0  0
   -1.1650    0.5029    0.9221 C   0  0  0  0  0  0  0  0  0  0  0  0
    0.1907   -0.1345    0.9103 C   0  0  0  0  0  0  0  0  0  0  0  0
    0.2505   -1.5086    1.1113 C   0  0  0  0  0  0  0  0  0  0  0  0
   -0.8985   -2.2474    1.1352 O   0  0  0  0  0  0  0  0  0  0  0  0
    1.4728   -2.1581    1.1823 C   0  0  0  0  0  0  0  0  0  0  0  0
    2.6256   -1.4241    0.9058 C   0  0  0  0  0  0  0  0  0  0  0  0
    2.5715   -0.0858    0.5048 C   0  0  0  0  0  0  0  0  0  0  0  0
    1.3213    0.5402    0.4526 C   0  0  0  0  0  0  0  0  0  0  0  0
    1.2099    1.7569   -0.1762 O   0  0  0  0  0  0  0  0  0  0  0  0
    3.8119    0.5703    0.1133 C   0  0  0  0  0  0  0  0  0  0  0  0
    4.9676   -0.0973    0.1763 C   0  0  0  0  0  0  0  0  0  0  0  0
    5.0480   -1.4969    0.6265 C   0  0  0  0  0  0  0  0  0  0  0  0
    6.1273   -2.0745    0.6842 O   0  0  0  0  0  0  0  0  0  0  0  0
    3.8536   -2.1152    0.9683 O   0  0  0  0  0  0  0  0  0  0  0  0
   -2.3632    2.5498    0.4855 O   0  0  0  0  0  0  0  0  0  0  0  0
    0.0150    3.6786   -0.8686 C   0  0  0  0  0  0  0  0  0  0  0  0
   -2.0764   -2.7487   -0.9078 C   0  0  0  0  0  0  0  0  0  0  0  0
   -3.3470   -2.9876    1.4805 H   0  0  0  0  0  0  0  0  0  0  0  0
   -3.2179   -1.3312    2.0321 H   0  0  0  0  0  0  0  0  0  0  0  0
   -4.1601   -1.6973    0.5704 H   0  0  0  0  0  0  0  0  0  0  0  0
   -2.9093    0.1330   -0.3033 H   0  0  0  0  0  0  0  0  0  0  0  0
   -0.2898   -0.6584   -1.6470 H   0  0  0  0  0  0  0  0  0  0  0  0
   -1.8364   -0.2979   -2.3671 H   0  0  0  0  0  0  0  0  0  0  0  0
    0.0283    1.4567   -2.5746 H   0  0  0  0  0  0  0  0  0  0  0  0
   -1.5865    2.0061   -2.1314 H   0  0  0  0  0  0  0  0  0  0  0  0
   -0.6254    2.4766    1.5760 H   0  0  0  0  0  0  0  0  0  0  0  0
   -1.6574    0.3431    1.8892 H   0  0  0  0  0  0  0  0  0  0  0  0
    1.5257   -3.2220    1.3884 H   0  0  0  0  0  0  0  0  0  0  0  0
    3.7760    1.6013   -0.2222 H   0  0  0  0  0  0  0  0  0  0  0  0
    5.9075    0.3625   -0.1033 H   0  0  0  0  0  0  0  0  0  0  0  0
   -2.2985    3.5145    0.5973 H   0  0  0  0  0  0  0  0  0  0  0  0
    0.4066    4.2387   -0.0117 H   0  0  0  0  0  0  0  0  0  0  0  0
    0.7365    3.8143   -1.6829 H   0  0  0  0  0  0  0  0  0  0  0  0
   -0.9333    4.1321   -1.1737 H   0  0  0  0  0  0  0  0  0  0  0  0
   -2.2409   -3.7735   -0.5539 H   0  0  0  0  0  0  0  0  0  0  0  0
   -1.1400   -2.7800   -1.4743 H   0  0  0  0  0  0  0  0  0  0  0  0
   -2.8937   -2.4856   -1.5868 H   0  0  0  0  0  0  0  0  0  0  0  0
  1  2  1  0
  2  3  1  0
  3  4  1  0
  4  5  1  0
  5  6  1  0
  6  7  1  0
  7  8  1  0
  8  9  1  0
  9 10  2  0
 10 11  1  0
 10 12  1  0
 12 13  2  0
 13 14  1  0
 14 15  2  0
 15 16  1  0
 14 17  1  0
 17 18  2  0
 18 19  1  0
 19 20  2  0
 19 21  1  0
  7 22  1  0
  6 23  1  0
  2 24  1  0
 11  2  1  0
  8  3  1  0
 16  6  1  0
 15  9  1  0
 21 13  1  0
  1 25  1  0
  1 26  1  0
  1 27  1  0
  3 28  1  0
  4 29  1  0
  4 30  1  0
  5 31  1  0
  5 32  1  0
  7 33  1  0
  8 34  1  0
 12 35  1  0
 17 36  1  0
 18 37  1  0
 22 38  1  0
 23 39  1  0
 23 40  1  0
 23 41  1  0
 24 42  1  0
 24 43  1  0
 24 44  1  0
M  END
>  <Name>  (780) 
Bruceol

>  <PubChem ID>  (780) 
256517

>  <CDB ID>  (780) 
CDB0780

>  <Smiles>  (780) 
CC1(C2CCC3(C(C2C4=C(O1)C=C5C(=C4O3)C=CC(=O)O5)O)C)C

>  <Chemical class>  (780) 
Simple coumarins

>  <Natural source>  (780) 
Dipteryx odorata

>  <Molecular Formula>  (780) 
C19H20O5

>  <InChI-Key>  (780) 
AINCADFEINJXSR-UHFFFAOYSA-N

>  <Total Molweight>  (780) 
328.363

>  <cLogP>  (780) 
2.9564

>  <cLogS>  (780) 
-4.33

>  <H-Acceptors>  (780) 
5

>  <H-Donors>  (780) 
1

>  <Rotatable Bonds>  (780) 
0

>  <Polar Surface Area>  (780) 
64.99

$$$$
CDB0781
     RDKit          3D

 56 58  0  0  0  0  0  0  0  0999 V2000
    5.9448    0.1231   -2.4900 C   0  0  0  0  0  0  0  0  0  0  0  0
    7.0578    0.9658   -2.5343 C   0  0  0  0  0  0  0  0  0  0  0  0
    7.6662    1.3656   -1.3517 C   0  0  0  0  0  0  0  0  0  0  0  0
    7.1824    0.9332   -0.1220 C   0  0  0  0  0  0  0  0  0  0  0  0
    6.0670    0.0906   -0.0792 C   0  0  0  0  0  0  0  0  0  0  0  0
    5.4293   -0.3120   -1.2617 C   0  0  0  0  0  0  0  0  0  0  0  0
    4.2741   -1.2183   -1.2608 C   0  0  0  0  0  0  0  0  0  0  0  0
    3.2815   -1.1599   -0.3603 C   0  0  0  0  0  0  0  0  0  0  0  0
    2.1503   -2.1066   -0.4503 C   0  0  0  0  0  0  0  0  0  0  0  0
    2.0458   -2.9955   -1.2764 O   0  0  0  0  0  0  0  0  0  0  0  0
    1.2819   -1.7992    0.5420 O   0  0  0  0  0  0  0  0  0  0  0  0
    0.0909   -2.6016    0.5970 C   0  0  0  0  0  0  0  0  0  0  0  0
   -1.1021   -1.8206    0.0067 C   0  0  0  0  0  0  0  0  0  0  0  0
   -1.3907   -0.5904    0.8846 C   0  0  0  0  0  0  0  0  0  0  0  0
   -1.6126   -1.0140    2.3417 C   0  0  0  0  0  0  0  0  0  0  0  0
   -0.4321   -1.8721    2.8322 C   0  0  0  0  0  0  0  0  0  0  0  0
   -0.1756   -2.9793    1.9543 O   0  0  0  0  0  0  0  0  0  0  0  0
   -0.6724   -2.4439    4.2342 C   0  0  0  0  0  0  0  0  0  0  0  0
   -0.9939   -1.4213    5.1705 O   0  0  0  0  0  0  0  0  0  0  0  0
   -2.8458   -1.7428    2.4524 O   0  0  0  0  0  0  0  0  0  0  0  0
   -2.5915    0.0861    0.4299 O   0  0  0  0  0  0  0  0  0  0  0  0
   -2.3950    0.9889   -0.5667 C   0  0  0  0  0  0  0  0  0  0  0  0
   -1.3122    1.2699   -1.0557 O   0  0  0  0  0  0  0  0  0  0  0  0
   -3.6791    1.6146   -0.9670 C   0  0  0  0  0  0  0  0  0  0  0  0
   -4.9165    0.9944   -0.7126 C   0  0  0  0  0  0  0  0  0  0  0  0
   -6.0887    1.6264   -1.1168 C   0  0  0  0  0  0  0  0  0  0  0  0
   -6.0351    2.8567   -1.7628 C   0  0  0  0  0  0  0  0  0  0  0  0
   -4.8120    3.4616   -2.0192 C   0  0  0  0  0  0  0  0  0  0  0  0
   -3.6285    2.8492   -1.6320 C   0  0  0  0  0  0  0  0  0  0  0  0
   -4.7650    4.6666   -2.6565 O   0  0  0  0  0  0  0  0  0  0  0  0
   -7.1832    3.4858   -2.1599 O   0  0  0  0  0  0  0  0  0  0  0  0
   -7.3220    1.0765   -0.9048 O   0  0  0  0  0  0  0  0  0  0  0  0
   -0.8711   -1.4625   -1.3615 O   0  0  0  0  0  0  0  0  0  0  0  0
    8.7505    2.1865   -1.4407 O   0  0  0  0  0  0  0  0  0  0  0  0
    5.4801   -0.1829   -3.4249 H   0  0  0  0  0  0  0  0  0  0  0  0
    7.4483    1.3060   -3.4892 H   0  0  0  0  0  0  0  0  0  0  0  0
    7.6580    1.2316    0.8067 H   0  0  0  0  0  0  0  0  0  0  0  0
    5.7131   -0.2572    0.8882 H   0  0  0  0  0  0  0  0  0  0  0  0
    4.2432   -1.9504   -2.0669 H   0  0  0  0  0  0  0  0  0  0  0  0
    3.2571   -0.4300    0.4387 H   0  0  0  0  0  0  0  0  0  0  0  0
    0.2194   -3.5358    0.0396 H   0  0  0  0  0  0  0  0  0  0  0  0
   -1.9877   -2.4673    0.0043 H   0  0  0  0  0  0  0  0  0  0  0  0
   -0.5445    0.1091    0.8561 H   0  0  0  0  0  0  0  0  0  0  0  0
   -1.7284   -0.1220    2.9680 H   0  0  0  0  0  0  0  0  0  0  0  0
    0.4639   -1.2393    2.8735 H   0  0  0  0  0  0  0  0  0  0  0  0
   -1.4650   -3.2014    4.2341 H   0  0  0  0  0  0  0  0  0  0  0  0
    0.2341   -2.9508    4.5831 H   0  0  0  0  0  0  0  0  0  0  0  0
   -1.9668   -1.3630    5.1861 H   0  0  0  0  0  0  0  0  0  0  0  0
   -3.5208   -1.2092    1.9932 H   0  0  0  0  0  0  0  0  0  0  0  0
   -4.9551    0.0288   -0.2194 H   0  0  0  0  0  0  0  0  0  0  0  0
   -2.6780    3.3324   -1.8453 H   0  0  0  0  0  0  0  0  0  0  0  0
   -5.7001    4.8922   -2.8379 H   0  0  0  0  0  0  0  0  0  0  0  0
   -7.9022    2.8797   -1.8860 H   0  0  0  0  0  0  0  0  0  0  0  0
   -7.2115    0.1989   -0.4987 H   0  0  0  0  0  0  0  0  0  0  0  0
   -0.5259   -0.5471   -1.4025 H   0  0  0  0  0  0  0  0  0  0  0  0
    9.0717    2.3762   -0.5441 H   0  0  0  0  0  0  0  0  0  0  0  0
  1  2  2  0
  2  3  1  0
  3  4  2  0
  4  5  1  0
  5  6  2  0
  6  7  1  0
  7  8  2  3
  8  9  1  0
  9 10  2  0
  9 11  1  0
 11 12  1  0
 12 13  1  0
 13 14  1  0
 14 15  1  0
 15 16  1  0
 16 17  1  0
 16 18  1  0
 18 19  1  0
 15 20  1  0
 14 21  1  0
 21 22  1  0
 22 23  2  0
 22 24  1  0
 24 25  2  0
 25 26  1  0
 26 27  2  0
 27 28  1  0
 28 29  2  0
 28 30  1  0
 27 31  1  0
 26 32  1  0
 13 33  1  0
  3 34  1  0
  6  1  1  0
 17 12  1  0
 29 24  1  0
  1 35  1  0
  2 36  1  0
  4 37  1  0
  5 38  1  0
  7 39  1  0
  8 40  1  0
 12 41  1  0
 13 42  1  0
 14 43  1  0
 15 44  1  0
 16 45  1  0
 18 46  1  0
 18 47  1  0
 19 48  1  0
 20 49  1  0
 25 50  1  0
 29 51  1  0
 30 52  1  0
 31 53  1  0
 32 54  1  0
 33 55  1  0
 34 56  1  0
M  END
>  <Name>  (781) 
(E)-4-Hydroxycinnamic Acid

>  <PubChem ID>  (781) 
44477820

>  <CDB ID>  (781) 
CDB0781

>  <Smiles>  (781) 
C1=CC(=CC=C1C=CC(=O)OC2C(C(C(C(O2)CO)O)OC(=O)C3=CC(=C(C(=C3)O)O)O)O)O

>  <Chemical class>  (781) 
Simple coumarins

>  <Natural source>  (781) 
Dipteryx odorata

>  <Molecular Formula>  (781) 
C22H22O12

>  <InChI-Key>  (781) 
QBHFEZBXVAOTDL-UHFFFAOYSA-N

>  <Total Molweight>  (781) 
478.405

>  <cLogP>  (781) 
0.1824

>  <cLogS>  (781) 
-2.095

>  <H-Acceptors>  (781) 
12

>  <H-Donors>  (781) 
7

>  <Rotatable Bonds>  (781) 
8

>  <Polar Surface Area>  (781) 
203.44

$$$$
CDB0782
     RDKit          3D

 21 22  0  0  0  0  0  0  0  0999 V2000
    3.8579   -0.3066    0.0435 C   0  0  0  0  0  0  0  0  0  0  0  0
    2.7643   -0.2912   -0.8652 O   0  0  0  0  0  0  0  0  0  0  0  0
    1.5123   -0.1707   -0.3289 C   0  0  0  0  0  0  0  0  0  0  0  0
    0.4761   -0.1610   -1.2640 C   0  0  0  0  0  0  0  0  0  0  0  0
   -0.8422   -0.0426   -0.8302 C   0  0  0  0  0  0  0  0  0  0  0  0
   -1.1586    0.0673    0.5207 C   0  0  0  0  0  0  0  0  0  0  0  0
   -0.1229    0.0576    1.4552 C   0  0  0  0  0  0  0  0  0  0  0  0
    1.2086   -0.0611    1.0315 C   0  0  0  0  0  0  0  0  0  0  0  0
   -2.5531    0.1881    0.9111 C   0  0  0  0  0  0  0  0  0  0  0  0
   -3.5005    0.1912   -0.0316 C   0  0  0  0  0  0  0  0  0  0  0  0
   -3.1894    0.0762   -1.4677 C   0  0  0  0  0  0  0  0  0  0  0  0
   -4.0866    0.0830   -2.3026 O   0  0  0  0  0  0  0  0  0  0  0  0
   -1.8503   -0.0380   -1.8143 O   0  0  0  0  0  0  0  0  0  0  0  0
    3.7971   -1.1658    0.7196 H   0  0  0  0  0  0  0  0  0  0  0  0
    4.7772   -0.4076   -0.5413 H   0  0  0  0  0  0  0  0  0  0  0  0
    3.9200    0.6332    0.6021 H   0  0  0  0  0  0  0  0  0  0  0  0
    0.6967   -0.2453   -2.3243 H   0  0  0  0  0  0  0  0  0  0  0  0
   -0.3341    0.1415    2.5187 H   0  0  0  0  0  0  0  0  0  0  0  0
    1.9845   -0.0645    1.7904 H   0  0  0  0  0  0  0  0  0  0  0  0
   -2.8054    0.2739    1.9621 H   0  0  0  0  0  0  0  0  0  0  0  0
   -4.5515    0.2792    0.2152 H   0  0  0  0  0  0  0  0  0  0  0  0
  1  2  1  0
  2  3  1  0
  3  4  2  0
  4  5  1  0
  5  6  2  0
  6  7  1  0
  7  8  2  0
  6  9  1  0
  9 10  2  0
 10 11  1  0
 11 12  2  0
 11 13  1  0
  8  3  1  0
 13  5  1  0
  1 14  1  0
  1 15  1  0
  1 16  1  0
  4 17  1  0
  7 18  1  0
  8 19  1  0
  9 20  1  0
 10 21  1  0
M  END
>  <Name>  (782) 
Ayapanin

>  <PubChem ID>  (782) 
10748

>  <CDB ID>  (782) 
CDB0782

>  <Smiles>  (782) 
COC1=CC2=C(C=C1)C=CC(=O)O2

>  <Chemical class>  (782) 
Simple coumarins

>  <Natural source>  (782) 
Murraya alata

>  <Molecular Formula>  (782) 
C10H8O3

>  <InChI-Key>  (782) 
LIIALPBMIOVAHH-UHFFFAOYSA-N

>  <Total Molweight>  (782) 
176.171

>  <cLogP>  (782) 
1.4274

>  <cLogS>  (782) 
-2.388

>  <H-Acceptors>  (782) 
3

>  <H-Donors>  (782) 
0

>  <Rotatable Bonds>  (782) 
1

>  <Polar Surface Area>  (782) 
35.53

$$$$
CDB0783
     RDKit          3D

 19 20  0  0  0  0  0  0  0  0999 V2000
   -1.5628   -1.4223    0.0663 C   0  0  0  0  0  0  0  0  0  0  0  0
   -2.7147   -0.7810    0.2840 C   0  0  0  0  0  0  0  0  0  0  0  0
   -2.7904    0.6824    0.4404 C   0  0  0  0  0  0  0  0  0  0  0  0
   -3.8688    1.2301    0.6390 O   0  0  0  0  0  0  0  0  0  0  0  0
   -1.5988    1.3833    0.3515 O   0  0  0  0  0  0  0  0  0  0  0  0
   -0.3716    0.7254    0.1221 C   0  0  0  0  0  0  0  0  0  0  0  0
    0.7885    1.4964    0.0444 C   0  0  0  0  0  0  0  0  0  0  0  0
    2.0145    0.8791   -0.1808 C   0  0  0  0  0  0  0  0  0  0  0  0
    2.0615   -0.5058   -0.3255 C   0  0  0  0  0  0  0  0  0  0  0  0
    0.9057   -1.2839   -0.2491 C   0  0  0  0  0  0  0  0  0  0  0  0
   -0.3259   -0.6621   -0.0227 C   0  0  0  0  0  0  0  0  0  0  0  0
    3.2834   -1.0723   -0.5451 O   0  0  0  0  0  0  0  0  0  0  0  0
    0.7061    2.8509    0.1908 O   0  0  0  0  0  0  0  0  0  0  0  0
   -1.5350   -2.5004   -0.0452 H   0  0  0  0  0  0  0  0  0  0  0  0
   -3.6578   -1.3088    0.3571 H   0  0  0  0  0  0  0  0  0  0  0  0
    2.9341    1.4514   -0.2463 H   0  0  0  0  0  0  0  0  0  0  0  0
    0.9586   -2.3622   -0.3640 H   0  0  0  0  0  0  0  0  0  0  0  0
    3.1792   -2.0349   -0.6275 H   0  0  0  0  0  0  0  0  0  0  0  0
    1.5943    3.2349    0.1107 H   0  0  0  0  0  0  0  0  0  0  0  0
  1  2  2  0
  2  3  1  0
  3  4  2  0
  3  5  1  0
  5  6  1  0
  6  7  2  0
  7  8  1  0
  8  9  2  0
  9 10  1  0
 10 11  2  0
  9 12  1  0
  7 13  1  0
 11  1  1  0
 11  6  1  0
  1 14  1  0
  2 15  1  0
  8 16  1  0
 10 17  1  0
 12 18  1  0
 13 19  1  0
M  END
>  <Name>  (783) 
6,8-Dihydroxycoumarin

>  <PubChem ID>  (783) 
90473800

>  <CDB ID>  (783) 
CDB0783

>  <Smiles>  (783) 
C1=CC(=O)OC2=C(C=C(C=C21)O)O

>  <Chemical class>  (783) 
Simple coumarins

>  <Natural source>  (783) 
Alyxia schlechteri

>  <Molecular Formula>  (783) 
C9H6O4

>  <InChI-Key>  (783) 
PDPMKNTXNMBIPY-UHFFFAOYSA-N

>  <Total Molweight>  (783) 
178.143

>  <cLogP>  (783) 
0.806

>  <cLogS>  (783) 
-1.778

>  <H-Acceptors>  (783) 
4

>  <H-Donors>  (783) 
2

>  <Rotatable Bonds>  (783) 
0

>  <Polar Surface Area>  (783) 
66.76

$$$$
CDB0784
     RDKit          3D

 18 19  0  0  0  0  0  0  0  0999 V2000
   -1.9393   -1.3378   -0.2271 C   0  0  0  0  0  0  0  0  0  0  0  0
   -0.6252   -1.7846   -0.3472 C   0  0  0  0  0  0  0  0  0  0  0  0
    0.4127   -0.8594   -0.2625 C   0  0  0  0  0  0  0  0  0  0  0  0
    0.1692    0.4995   -0.0611 C   0  0  0  0  0  0  0  0  0  0  0  0
    1.2993    1.4112    0.0176 C   0  0  0  0  0  0  0  0  0  0  0  0
    2.5409    0.9316   -0.1039 C   0  0  0  0  0  0  0  0  0  0  0  0
    2.8207   -0.4996   -0.3170 C   0  0  0  0  0  0  0  0  0  0  0  0
    3.9739   -0.9007   -0.4236 O   0  0  0  0  0  0  0  0  0  0  0  0
    1.7268   -1.3506   -0.3888 O   0  0  0  0  0  0  0  0  0  0  0  0
   -1.1507    0.9424    0.0586 C   0  0  0  0  0  0  0  0  0  0  0  0
   -2.1919    0.0174   -0.0259 C   0  0  0  0  0  0  0  0  0  0  0  0
   -3.4951    0.4042    0.0853 O   0  0  0  0  0  0  0  0  0  0  0  0
   -2.7650   -2.0414   -0.2899 H   0  0  0  0  0  0  0  0  0  0  0  0
   -0.4142   -2.8381   -0.5043 H   0  0  0  0  0  0  0  0  0  0  0  0
    1.1197    2.4690    0.1739 H   0  0  0  0  0  0  0  0  0  0  0  0
    3.4098    1.5762   -0.0513 H   0  0  0  0  0  0  0  0  0  0  0  0
   -1.3606    1.9956    0.2156 H   0  0  0  0  0  0  0  0  0  0  0  0
   -3.5311    1.3651    0.2217 H   0  0  0  0  0  0  0  0  0  0  0  0
  1  2  2  0
  2  3  1  0
  3  4  2  0
  4  5  1  0
  5  6  2  0
  6  7  1  0
  7  8  2  0
  7  9  1  0
  4 10  1  0
 10 11  2  0
 11 12  1  0
 11  1  1  0
  9  3  1  0
  1 13  1  0
  2 14  1  0
  5 15  1  0
  6 16  1  0
 10 17  1  0
 12 18  1  0
M  END
>  <Name>  (784) 
6-Hydroxycoumarin

>  <PubChem ID>  (784) 
99477

>  <CDB ID>  (784) 
CDB0784

>  <Smiles>  (784) 
C1=CC2=C(C=CC(=O)O2)C=C1O

>  <Chemical class>  (784) 
Simple coumarins

>  <Natural source>  (784) 
Prangos pabularia

>  <Molecular Formula>  (784) 
C9H6O3

>  <InChI-Key>  (784) 
CJIJXIFQYOPWTF-UHFFFAOYSA-N

>  <Total Molweight>  (784) 
162.144

>  <cLogP>  (784) 
1.1517

>  <cLogS>  (784) 
-2.074

>  <H-Acceptors>  (784) 
3

>  <H-Donors>  (784) 
1

>  <Rotatable Bonds>  (784) 
0

>  <Polar Surface Area>  (784) 
46.53

$$$$
CDB0785
     RDKit          3D

 22 23  0  0  0  0  0  0  0  0999 V2000
    3.7660    0.1304    0.4525 C   0  0  0  0  0  0  0  0  0  0  0  0
    2.6600    0.8767   -0.0427 O   0  0  0  0  0  0  0  0  0  0  0  0
    1.4244    0.2903    0.0599 C   0  0  0  0  0  0  0  0  0  0  0  0
    0.3636    1.0566   -0.4384 C   0  0  0  0  0  0  0  0  0  0  0  0
   -0.9415    0.5726   -0.3926 C   0  0  0  0  0  0  0  0  0  0  0  0
   -1.2167   -0.6808    0.1488 C   0  0  0  0  0  0  0  0  0  0  0  0
   -0.1622   -1.4507    0.6478 C   0  0  0  0  0  0  0  0  0  0  0  0
    1.1541   -0.9675    0.6039 C   0  0  0  0  0  0  0  0  0  0  0  0
   -2.5917   -1.1517    0.1790 C   0  0  0  0  0  0  0  0  0  0  0  0
   -3.5623   -0.3752   -0.3117 C   0  0  0  0  0  0  0  0  0  0  0  0
   -3.2973    0.9546   -0.8897 C   0  0  0  0  0  0  0  0  0  0  0  0
   -4.2181    1.6342   -1.3289 O   0  0  0  0  0  0  0  0  0  0  0  0
   -1.9783    1.3786   -0.9059 O   0  0  0  0  0  0  0  0  0  0  0  0
    0.6147    2.2919   -0.9747 O   0  0  0  0  0  0  0  0  0  0  0  0
    3.6676   -0.0540    1.5273 H   0  0  0  0  0  0  0  0  0  0  0  0
    3.8893   -0.8061   -0.1012 H   0  0  0  0  0  0  0  0  0  0  0  0
    4.6686    0.7296    0.2986 H   0  0  0  0  0  0  0  0  0  0  0  0
   -0.3497   -2.4331    1.0760 H   0  0  0  0  0  0  0  0  0  0  0  0
    1.9409   -1.5997    1.0029 H   0  0  0  0  0  0  0  0  0  0  0  0
   -2.8117   -2.1266    0.5993 H   0  0  0  0  0  0  0  0  0  0  0  0
   -4.5997   -0.6864   -0.3092 H   0  0  0  0  0  0  0  0  0  0  0  0
    1.5801    2.4164   -0.9008 H   0  0  0  0  0  0  0  0  0  0  0  0
  1  2  1  0
  2  3  1  0
  3  4  2  0
  4  5  1  0
  5  6  2  0
  6  7  1  0
  7  8  2  0
  6  9  1  0
  9 10  2  0
 10 11  1  0
 11 12  2  0
 11 13  1  0
  4 14  1  0
  8  3  1  0
 13  5  1  0
  1 15  1  0
  1 16  1  0
  1 17  1  0
  7 18  1  0
  8 19  1  0
  9 20  1  0
 10 21  1  0
 14 22  1  0
M  END
>  <Name>  (785) 
Daphnetin-7-Methyl Ether

>  <PubChem ID>  (785) 
146487

>  <CDB ID>  (785) 
CDB0785

>  <Smiles>  (785) 
COC1=C(C2=C(C=C1)C=CC(=O)O2)O

>  <Chemical class>  (785) 
Simple coumarins

>  <Natural source>  (785) 
Feroniella lucida

>  <Molecular Formula>  (785) 
C10H8O4

>  <InChI-Key>  (785) 
KIGCGZUAVODHMD-UHFFFAOYSA-N

>  <Total Molweight>  (785) 
192.17

>  <cLogP>  (785) 
1.0817

>  <cLogS>  (785) 
-2.092

>  <H-Acceptors>  (785) 
4

>  <H-Donors>  (785) 
1

>  <Rotatable Bonds>  (785) 
1

>  <Polar Surface Area>  (785) 
55.76

$$$$
CDB0786
     RDKit          3D

 24 25  0  0  0  0  0  0  0  0999 V2000
    0.8656   -2.2498    0.4576 C   0  0  0  0  0  0  0  0  0  0  0  0
    0.4432   -0.8371    0.1569 C   0  0  0  0  0  0  0  0  0  0  0  0
    1.3983    0.1466   -0.1627 C   0  0  0  0  0  0  0  0  0  0  0  0
    0.9805    1.4496   -0.4630 C   0  0  0  0  0  0  0  0  0  0  0  0
   -0.3788    1.7828   -0.4641 C   0  0  0  0  0  0  0  0  0  0  0  0
   -1.3362    0.8144   -0.1717 C   0  0  0  0  0  0  0  0  0  0  0  0
   -0.9150   -0.4812    0.1289 C   0  0  0  0  0  0  0  0  0  0  0  0
   -1.8741   -1.4820    0.4129 O   0  0  0  0  0  0  0  0  0  0  0  0
   -3.2359   -1.2185    0.4128 C   0  0  0  0  0  0  0  0  0  0  0  0
   -4.0738   -2.0782    0.6589 O   0  0  0  0  0  0  0  0  0  0  0  0
   -3.6431    0.1609    0.0998 C   0  0  0  0  0  0  0  0  0  0  0  0
   -2.7575    1.1222   -0.1764 C   0  0  0  0  0  0  0  0  0  0  0  0
    2.7053   -0.2670   -0.1576 O   0  0  0  0  0  0  0  0  0  0  0  0
    3.7029    0.6932   -0.4793 C   0  0  0  0  0  0  0  0  0  0  0  0
    1.0231   -2.7978   -0.4765 H   0  0  0  0  0  0  0  0  0  0  0  0
    0.1165   -2.7816    1.0527 H   0  0  0  0  0  0  0  0  0  0  0  0
    1.7899   -2.2694    1.0445 H   0  0  0  0  0  0  0  0  0  0  0  0
    1.6903    2.2339   -0.7061 H   0  0  0  0  0  0  0  0  0  0  0  0
   -0.6731    2.8021   -0.7025 H   0  0  0  0  0  0  0  0  0  0  0  0
   -4.7095    0.3499    0.1059 H   0  0  0  0  0  0  0  0  0  0  0  0
   -3.0805    2.1317   -0.4052 H   0  0  0  0  0  0  0  0  0  0  0  0
    3.5748    1.0691   -1.4996 H   0  0  0  0  0  0  0  0  0  0  0  0
    4.6754    0.1941   -0.4289 H   0  0  0  0  0  0  0  0  0  0  0  0
    3.7116    1.5120    0.2477 H   0  0  0  0  0  0  0  0  0  0  0  0
  1  2  1  0
  2  3  2  0
  3  4  1  0
  4  5  2  0
  5  6  1  0
  6  7  2  0
  7  8  1  0
  8  9  1  0
  9 10  2  0
  9 11  1  0
 11 12  2  0
  3 13  1  0
 13 14  1  0
  7  2  1  0
 12  6  1  0
  1 15  1  0
  1 16  1  0
  1 17  1  0
  4 18  1  0
  5 19  1  0
 11 20  1  0
 12 21  1  0
 14 22  1  0
 14 23  1  0
 14 24  1  0
M  END
>  <Name>  (786) 
7-Methoxy-8-Methylcoumarin

>  <PubChem ID>  (786) 
11217720

>  <CDB ID>  (786) 
CDB0786

>  <Smiles>  (786) 
CC1=C(C=CC2=C1OC(=O)C=C2)OC

>  <Chemical class>  (786) 
Simple coumarins

>  <Natural source>  (786) 
Micromelum minutum

>  <Molecular Formula>  (786) 
C11H10O3

>  <InChI-Key>  (786) 
PCTKIMBTXIYGBB-UHFFFAOYSA-N

>  <Total Molweight>  (786) 
190.197

>  <cLogP>  (786) 
1.7713

>  <cLogS>  (786) 
-2.732

>  <H-Acceptors>  (786) 
3

>  <H-Donors>  (786) 
0

>  <Rotatable Bonds>  (786) 
1

>  <Polar Surface Area>  (786) 
35.53

$$$$
CDB0787
     RDKit          3D

 22 23  0  0  0  0  0  0  0  0999 V2000
    3.3132    1.3152   -0.2763 C   0  0  0  0  0  0  0  0  0  0  0  0
    2.8494   -0.0191   -0.4214 O   0  0  0  0  0  0  0  0  0  0  0  0
    1.5015   -0.2405   -0.3125 C   0  0  0  0  0  0  0  0  0  0  0  0
    1.0819   -1.5739   -0.4621 C   0  0  0  0  0  0  0  0  0  0  0  0
   -0.2638   -1.9217   -0.3717 C   0  0  0  0  0  0  0  0  0  0  0  0
   -1.1942   -0.9168   -0.1286 C   0  0  0  0  0  0  0  0  0  0  0  0
   -0.8125    0.4143    0.0246 C   0  0  0  0  0  0  0  0  0  0  0  0
    0.5428    0.7515   -0.0683 C   0  0  0  0  0  0  0  0  0  0  0  0
   -1.8388    1.4138    0.2770 C   0  0  0  0  0  0  0  0  0  0  0  0
   -3.1191    1.0384    0.3565 C   0  0  0  0  0  0  0  0  0  0  0  0
   -3.5446   -0.3633    0.1976 C   0  0  0  0  0  0  0  0  0  0  0  0
   -4.7281   -0.6708    0.2769 O   0  0  0  0  0  0  0  0  0  0  0  0
   -2.5476   -1.2989   -0.0424 O   0  0  0  0  0  0  0  0  0  0  0  0
    2.0188   -2.5444   -0.7009 O   0  0  0  0  0  0  0  0  0  0  0  0
    4.4013    1.3059   -0.3915 H   0  0  0  0  0  0  0  0  0  0  0  0
    2.9018    1.9634   -1.0571 H   0  0  0  0  0  0  0  0  0  0  0  0
    3.0879    1.7053    0.7217 H   0  0  0  0  0  0  0  0  0  0  0  0
   -0.5964   -2.9475   -0.4857 H   0  0  0  0  0  0  0  0  0  0  0  0
    0.8320    1.7900    0.0521 H   0  0  0  0  0  0  0  0  0  0  0  0
   -1.5510    2.4524    0.3976 H   0  0  0  0  0  0  0  0  0  0  0  0
   -3.9129    1.7516    0.5430 H   0  0  0  0  0  0  0  0  0  0  0  0
    1.5784   -3.4050   -0.7797 H   0  0  0  0  0  0  0  0  0  0  0  0
  1  2  1  0
  2  3  1  0
  3  4  1  0
  4  5  2  0
  5  6  1  0
  6  7  2  0
  7  8  1  0
  7  9  1  0
  9 10  2  0
 10 11  1  0
 11 12  2  0
 11 13  1  0
  4 14  1  0
  8  3  2  0
 13  6  1  0
  1 15  1  0
  1 16  1  0
  1 17  1  0
  5 18  1  0
  8 19  1  0
  9 20  1  0
 10 21  1  0
 14 22  1  0
M  END
>  <Name>  (787) 
Scopoletin

>  <PubChem ID>  (787) 
5280460

>  <CDB ID>  (787) 
CDB0787

>  <Smiles>  (787) 
COC1=C(C=C2C(=C1)C=CC(=O)O2)O

>  <Chemical class>  (787) 
Simple coumarins

>  <Natural source>  (787) 
Calendula officinalis

>  <Molecular Formula>  (787) 
C10H8O4

>  <InChI-Key>  (787) 
RODXRVNMMDRFIK-UHFFFAOYSA-N

>  <Total Molweight>  (787) 
192.17

>  <cLogP>  (787) 
1.0817

>  <cLogS>  (787) 
-2.092

>  <H-Acceptors>  (787) 
4

>  <H-Donors>  (787) 
1

>  <Rotatable Bonds>  (787) 
1

>  <Polar Surface Area>  (787) 
55.76

$$$$
CDB0788
     RDKit          3D

 29 30  0  0  0  0  0  0  0  0999 V2000
    3.4644   -1.4939    0.5070 C   0  0  0  0  0  0  0  0  0  0  0  0
    2.7827   -0.2860    0.1988 O   0  0  0  0  0  0  0  0  0  0  0  0
    1.4150   -0.3317    0.1147 C   0  0  0  0  0  0  0  0  0  0  0  0
    0.7668    0.9025   -0.0743 C   0  0  0  0  0  0  0  0  0  0  0  0
   -0.6290    0.9718   -0.1438 C   0  0  0  0  0  0  0  0  0  0  0  0
   -1.3717   -0.2063   -0.0851 C   0  0  0  0  0  0  0  0  0  0  0  0
   -0.7488   -1.4423    0.0810 C   0  0  0  0  0  0  0  0  0  0  0  0
    0.6474   -1.5020    0.1851 C   0  0  0  0  0  0  0  0  0  0  0  0
   -1.5696   -2.6424    0.1414 C   0  0  0  0  0  0  0  0  0  0  0  0
   -2.8981   -2.5392    0.0407 C   0  0  0  0  0  0  0  0  0  0  0  0
   -3.5807   -1.2449   -0.1291 C   0  0  0  0  0  0  0  0  0  0  0  0
   -4.8023   -1.1901   -0.2083 O   0  0  0  0  0  0  0  0  0  0  0  0
   -2.7765   -0.1177   -0.1874 O   0  0  0  0  0  0  0  0  0  0  0  0
   -1.2688    2.1675   -0.3438 O   0  0  0  0  0  0  0  0  0  0  0  0
   -1.4523    2.8392    0.9025 C   0  0  0  0  0  0  0  0  0  0  0  0
    1.5083    2.0600   -0.1216 O   0  0  0  0  0  0  0  0  0  0  0  0
    1.8193    2.3790   -1.4777 C   0  0  0  0  0  0  0  0  0  0  0  0
    3.1309   -1.9045    1.4658 H   0  0  0  0  0  0  0  0  0  0  0  0
    4.5302   -1.2631    0.5966 H   0  0  0  0  0  0  0  0  0  0  0  0
    3.3494   -2.2259   -0.2990 H   0  0  0  0  0  0  0  0  0  0  0  0
    1.1186   -2.4709    0.3149 H   0  0  0  0  0  0  0  0  0  0  0  0
   -1.0922   -3.6081    0.2665 H   0  0  0  0  0  0  0  0  0  0  0  0
   -3.5437   -3.4082    0.0806 H   0  0  0  0  0  0  0  0  0  0  0  0
   -0.4941    3.1327    1.3437 H   0  0  0  0  0  0  0  0  0  0  0  0
   -2.0272    3.7499    0.7094 H   0  0  0  0  0  0  0  0  0  0  0  0
   -2.0223    2.2227    1.6068 H   0  0  0  0  0  0  0  0  0  0  0  0
    2.3987    1.5801   -1.9535 H   0  0  0  0  0  0  0  0  0  0  0  0
    0.9129    2.5869   -2.0564 H   0  0  0  0  0  0  0  0  0  0  0  0
    2.4327    3.2850   -1.4754 H   0  0  0  0  0  0  0  0  0  0  0  0
  1  2  1  0
  2  3  1  0
  3  4  1  0
  4  5  2  0
  5  6  1  0
  6  7  2  0
  7  8  1  0
  7  9  1  0
  9 10  2  0
 10 11  1  0
 11 12  2  0
 11 13  1  0
  5 14  1  0
 14 15  1  0
  4 16  1  0
 16 17  1  0
  8  3  2  0
 13  6  1  0
  1 18  1  0
  1 19  1  0
  1 20  1  0
  8 21  1  0
  9 22  1  0
 10 23  1  0
 15 24  1  0
 15 25  1  0
 15 26  1  0
 17 27  1  0
 17 28  1  0
 17 29  1  0
M  END
>  <Name>  (788) 
6,7,8-Trimethoxycoumarin

>  <PubChem ID>  (788) 
3083928

>  <CDB ID>  (788) 
CDB0788

>  <Smiles>  (788) 
COC1=C(C(=C2C(=C1)C=CC(=O)O2)OC)OC

>  <Chemical class>  (788) 
Simple coumarins

>  <Natural source>  (788) 
Chroogomphus rutilus

>  <Molecular Formula>  (788) 
C12H12O5

>  <InChI-Key>  (788) 
RAYQKHLZHPFYEJ-UHFFFAOYSA-N

>  <Total Molweight>  (788) 
236.222

>  <cLogP>  (788) 
1.2874

>  <cLogS>  (788) 
-2.424

>  <H-Acceptors>  (788) 
5

>  <H-Donors>  (788) 
0

>  <Rotatable Bonds>  (788) 
3

>  <Polar Surface Area>  (788) 
53.99

$$$$
CDB0789
     RDKit          3D

 41 43  0  0  0  0  0  0  0  0999 V2000
   -4.9671   -0.3435    1.9813 C   0  0  0  0  0  0  0  0  0  0  0  0
   -5.3292   -0.4179    0.6104 O   0  0  0  0  0  0  0  0  0  0  0  0
   -4.3546   -0.1634   -0.3182 C   0  0  0  0  0  0  0  0  0  0  0  0
   -4.7717   -0.1123   -1.6551 C   0  0  0  0  0  0  0  0  0  0  0  0
   -3.8650    0.1412   -2.6829 C   0  0  0  0  0  0  0  0  0  0  0  0
   -2.5175    0.3403   -2.3805 C   0  0  0  0  0  0  0  0  0  0  0  0
   -2.0711    0.2856   -1.0536 C   0  0  0  0  0  0  0  0  0  0  0  0
   -3.0008    0.0367   -0.0268 C   0  0  0  0  0  0  0  0  0  0  0  0
   -0.6395    0.4814   -0.7429 C   0  0  0  0  0  0  0  0  0  0  0  0
    0.0281   -0.4993   -0.1139 C   0  0  0  0  0  0  0  0  0  0  0  0
    1.4424   -0.3662    0.2122 C   0  0  0  0  0  0  0  0  0  0  0  0
    2.1221   -1.3999    0.8714 C   0  0  0  0  0  0  0  0  0  0  0  0
    3.4765   -1.2674    1.1810 C   0  0  0  0  0  0  0  0  0  0  0  0
    4.1324   -0.0819    0.8204 C   0  0  0  0  0  0  0  0  0  0  0  0
    3.4754    0.9714    0.1612 C   0  0  0  0  0  0  0  0  0  0  0  0
    2.1214    0.8048   -0.1378 C   0  0  0  0  0  0  0  0  0  0  0  0
    1.4102    1.8184   -0.8102 O   0  0  0  0  0  0  0  0  0  0  0  0
    0.0638    1.7297   -1.1461 C   0  0  0  0  0  0  0  0  0  0  0  0
   -0.4951    2.6429   -1.7434 O   0  0  0  0  0  0  0  0  0  0  0  0
    4.2924    2.0405   -0.1034 O   0  0  0  0  0  0  0  0  0  0  0  0
    3.7310    3.2006   -0.7017 C   0  0  0  0  0  0  0  0  0  0  0  0
    5.4687    0.0612    1.1209 O   0  0  0  0  0  0  0  0  0  0  0  0
    4.2349   -2.2110    1.8197 O   0  0  0  0  0  0  0  0  0  0  0  0
    3.6068   -3.4324    2.1802 C   0  0  0  0  0  0  0  0  0  0  0  0
   -6.0941   -0.3108   -1.9508 O   0  0  0  0  0  0  0  0  0  0  0  0
   -5.8706   -0.5097    2.5759 H   0  0  0  0  0  0  0  0  0  0  0  0
   -4.2495   -1.1285    2.2413 H   0  0  0  0  0  0  0  0  0  0  0  0
   -4.5787    0.6481    2.2366 H   0  0  0  0  0  0  0  0  0  0  0  0
   -4.1871    0.1892   -3.7185 H   0  0  0  0  0  0  0  0  0  0  0  0
   -1.8204    0.5438   -3.1914 H   0  0  0  0  0  0  0  0  0  0  0  0
   -2.6466    0.0078    0.9987 H   0  0  0  0  0  0  0  0  0  0  0  0
   -0.4653   -1.4267    0.1647 H   0  0  0  0  0  0  0  0  0  0  0  0
    1.5778   -2.3012    1.1342 H   0  0  0  0  0  0  0  0  0  0  0  0
    3.3808    2.9906   -1.7168 H   0  0  0  0  0  0  0  0  0  0  0  0
    4.5270    3.9477   -0.7816 H   0  0  0  0  0  0  0  0  0  0  0  0
    2.9441    3.6310   -0.0745 H   0  0  0  0  0  0  0  0  0  0  0  0
    5.7179    0.9421    0.7826 H   0  0  0  0  0  0  0  0  0  0  0  0
    2.7984   -3.2630    2.8990 H   0  0  0  0  0  0  0  0  0  0  0  0
    4.3566   -4.0643    2.6659 H   0  0  0  0  0  0  0  0  0  0  0  0
    3.2442   -3.9664    1.2957 H   0  0  0  0  0  0  0  0  0  0  0  0
   -6.2289   -0.1893   -2.9032 H   0  0  0  0  0  0  0  0  0  0  0  0
  1  2  1  0
  2  3  1  0
  3  4  2  0
  4  5  1  0
  5  6  2  0
  6  7  1  0
  7  8  2  0
  7  9  1  0
  9 10  2  0
 10 11  1  0
 11 12  1  0
 12 13  2  0
 13 14  1  0
 14 15  2  0
 15 16  1  0
 16 17  1  0
 17 18  1  0
 18 19  2  0
 15 20  1  0
 20 21  1  0
 14 22  1  0
 13 23  1  0
 23 24  1  0
  4 25  1  0
  8  3  1  0
 18  9  1  0
 16 11  2  0
  1 26  1  0
  1 27  1  0
  1 28  1  0
  5 29  1  0
  6 30  1  0
  8 31  1  0
 10 32  1  0
 12 33  1  0
 21 34  1  0
 21 35  1  0
 21 36  1  0
 22 37  1  0
 24 38  1  0
 24 39  1  0
 24 40  1  0
 25 41  1  0
M  END
>  <Name>  (789) 
7-Hydroxy-6,8-Dimethoxy-3-(4'-Hydroxy-3'-Methoxyphenyl)-Coumarin

>  <PubChem ID>  (789) 
132279711

>  <CDB ID>  (789) 
CDB0789

>  <Smiles>  (789) 
COC1=C(C=CC(=C1)C2=CC3=CC(=C(C(=C3OC2=O)OC)O)OC)O

>  <Chemical class>  (789) 
Simple coumarins

>  <Natural source>  (789) 
Micromelum integerrimum

>  <Molecular Formula>  (789) 
C18H16O7

>  <InChI-Key>  (789) 
DEBLTYHWROUUSK-UHFFFAOYSA-N

>  <Total Molweight>  (789) 
344.318

>  <cLogP>  (789) 
1.8512

>  <cLogS>  (789) 
-2.789

>  <H-Acceptors>  (789) 
7

>  <H-Donors>  (789) 
2

>  <Rotatable Bonds>  (789) 
4

>  <Polar Surface Area>  (789) 
94.45

$$$$
CDB0790
     RDKit          3D

 39 41  0  0  0  0  0  0  0  0999 V2000
   -4.6974    0.0056    1.0920 C   0  0  0  0  0  0  0  0  0  0  0  0
   -4.5033   -1.3795    1.1073 C   0  0  0  0  0  0  0  0  0  0  0  0
   -3.4457   -1.9370    0.3958 C   0  0  0  0  0  0  0  0  0  0  0  0
   -2.5633   -1.1281   -0.3196 C   0  0  0  0  0  0  0  0  0  0  0  0
   -2.7826    0.2507   -0.3532 C   0  0  0  0  0  0  0  0  0  0  0  0
   -3.8386    0.8280    0.3545 C   0  0  0  0  0  0  0  0  0  0  0  0
   -4.0203    2.2701    0.3015 C   0  0  0  0  0  0  0  0  0  0  0  0
   -3.1903    3.0137   -0.4361 C   0  0  0  0  0  0  0  0  0  0  0  0
   -2.0851    2.4283   -1.2140 C   0  0  0  0  0  0  0  0  0  0  0  0
   -1.3537    3.1364   -1.8960 O   0  0  0  0  0  0  0  0  0  0  0  0
   -1.9265    1.0535   -1.1361 O   0  0  0  0  0  0  0  0  0  0  0  0
   -1.5451   -1.7316   -1.0203 O   0  0  0  0  0  0  0  0  0  0  0  0
   -0.2697   -1.4544   -0.5763 C   0  0  0  0  0  0  0  0  0  0  0  0
    0.6611   -1.0497   -1.5323 C   0  0  0  0  0  0  0  0  0  0  0  0
    1.9716   -0.7831   -1.1411 C   0  0  0  0  0  0  0  0  0  0  0  0
    2.3772   -0.9413    0.1898 C   0  0  0  0  0  0  0  0  0  0  0  0
    1.4311   -1.3638    1.1359 C   0  0  0  0  0  0  0  0  0  0  0  0
    0.1132   -1.6257    0.7554 C   0  0  0  0  0  0  0  0  0  0  0  0
    3.7933   -0.6447    0.6232 C   0  0  0  0  0  0  0  0  0  0  0  0
    4.0227    0.8506    0.8239 C   0  0  0  0  0  0  0  0  0  0  0  0
    5.4276    1.1214    1.2791 C   0  0  0  0  0  0  0  0  0  0  0  0
    6.2811    0.3069    1.5858 O   0  0  0  0  0  0  0  0  0  0  0  0
    5.6895    2.4421    1.3499 O   0  0  0  0  0  0  0  0  0  0  0  0
    2.8888   -0.3560   -2.0599 O   0  0  0  0  0  0  0  0  0  0  0  0
   -3.2939   -3.2944    0.4310 O   0  0  0  0  0  0  0  0  0  0  0  0
   -5.5286    0.4281    1.6519 H   0  0  0  0  0  0  0  0  0  0  0  0
   -5.1766   -2.0214    1.6696 H   0  0  0  0  0  0  0  0  0  0  0  0
   -4.8296    2.7236    0.8634 H   0  0  0  0  0  0  0  0  0  0  0  0
   -3.2931    4.0901   -0.5020 H   0  0  0  0  0  0  0  0  0  0  0  0
    0.3465   -0.9325   -2.5642 H   0  0  0  0  0  0  0  0  0  0  0  0
    1.7178   -1.4955    2.1772 H   0  0  0  0  0  0  0  0  0  0  0  0
   -0.5970   -1.9676    1.5030 H   0  0  0  0  0  0  0  0  0  0  0  0
    4.4969   -1.0484   -0.1164 H   0  0  0  0  0  0  0  0  0  0  0  0
    4.0126   -1.1867    1.5528 H   0  0  0  0  0  0  0  0  0  0  0  0
    3.3351    1.2430    1.5819 H   0  0  0  0  0  0  0  0  0  0  0  0
    3.8553    1.3922   -0.1138 H   0  0  0  0  0  0  0  0  0  0  0  0
    6.6209    2.4836    1.6514 H   0  0  0  0  0  0  0  0  0  0  0  0
    2.4381   -0.2161   -2.9095 H   0  0  0  0  0  0  0  0  0  0  0  0
   -2.5398   -3.5106   -0.1494 H   0  0  0  0  0  0  0  0  0  0  0  0
  1  2  2  0
  2  3  1  0
  3  4  2  0
  4  5  1  0
  5  6  2  0
  6  7  1  0
  7  8  2  0
  8  9  1  0
  9 10  2  0
  9 11  1  0
  4 12  1  0
 12 13  1  0
 13 14  2  0
 14 15  1  0
 15 16  2  0
 16 17  1  0
 17 18  2  0
 16 19  1  0
 19 20  1  0
 20 21  1  0
 21 22  2  0
 21 23  1  0
 15 24  1  0
  3 25  1  0
  6  1  1  0
 11  5  1  0
 18 13  1  0
  1 26  1  0
  2 27  1  0
  7 28  1  0
  8 29  1  0
 14 30  1  0
 17 31  1  0
 18 32  1  0
 19 33  1  0
 19 34  1  0
 20 35  1  0
 20 36  1  0
 23 37  1  0
 24 38  1  0
 25 39  1  0
M  END
>  <Name>  (790) 
Edgeworic Acid

>  <PubChem ID>  (790) 
102234402

>  <CDB ID>  (790) 
CDB0790

>  <Smiles>  (790) 
C1=CC(=C(C2=C1C=CC(=O)O2)OC3=CC(=C(C=C3)CCC(=O)O)O)O

>  <Chemical class>  (790) 
Simple coumarins

>  <Natural source>  (790) 
Edgeworthia chrysantha

>  <Molecular Formula>  (790) 
C18H14O7

>  <InChI-Key>  (790) 
JAKWMPXIUWFSIA-UHFFFAOYSA-N

>  <Total Molweight>  (790) 
342.302

>  <cLogP>  (790) 
2.1392

>  <cLogS>  (790) 
-4.323

>  <H-Acceptors>  (790) 
7

>  <H-Donors>  (790) 
3

>  <Rotatable Bonds>  (790) 
5

>  <Polar Surface Area>  (790) 
113.29

$$$$
CDB0791
     RDKit          3D

 34 35  0  0  0  0  0  0  0  0999 V2000
    2.5378   -1.6660   -1.4312 C   0  0  0  0  0  0  0  0  0  0  0  0
    1.8159   -0.7794   -0.4575 C   0  0  0  0  0  0  0  0  0  0  0  0
    0.4062   -0.7680   -0.4384 C   0  0  0  0  0  0  0  0  0  0  0  0
   -0.3224    0.0395    0.4550 C   0  0  0  0  0  0  0  0  0  0  0  0
    0.4093    0.8418    1.3369 C   0  0  0  0  0  0  0  0  0  0  0  0
    1.8043    0.8533    1.3294 C   0  0  0  0  0  0  0  0  0  0  0  0
    2.5037    0.0738    0.4093 C   0  0  0  0  0  0  0  0  0  0  0  0
    3.8758    0.1161    0.4208 O   0  0  0  0  0  0  0  0  0  0  0  0
    4.3414    1.1123   -0.4953 C   0  0  0  0  0  0  0  0  0  0  0  0
    2.4886    1.6251    2.2294 O   0  0  0  0  0  0  0  0  0  0  0  0
   -0.2284    1.6758    2.2756 O   0  0  0  0  0  0  0  0  0  0  0  0
   -1.6018    1.7446    2.3507 C   0  0  0  0  0  0  0  0  0  0  0  0
   -2.1879    2.4697    3.1466 O   0  0  0  0  0  0  0  0  0  0  0  0
   -2.3588    0.8945    1.4204 C   0  0  0  0  0  0  0  0  0  0  0  0
   -1.8022    0.0764    0.5109 C   0  0  0  0  0  0  0  0  0  0  0  0
   -2.6336   -0.8029   -0.4209 C   0  0  0  0  0  0  0  0  0  0  0  0
   -2.7806   -0.1444   -1.7976 C   0  0  0  0  0  0  0  0  0  0  0  0
   -4.0275   -1.1724    0.1126 C   0  0  0  0  0  0  0  0  0  0  0  0
    1.9318   -2.5417   -1.6873 H   0  0  0  0  0  0  0  0  0  0  0  0
    3.4737   -2.0416   -1.0050 H   0  0  0  0  0  0  0  0  0  0  0  0
    2.7576   -1.1143   -2.3502 H   0  0  0  0  0  0  0  0  0  0  0  0
   -0.1091   -1.4141   -1.1448 H   0  0  0  0  0  0  0  0  0  0  0  0
    3.9923    2.1100   -0.2075 H   0  0  0  0  0  0  0  0  0  0  0  0
    5.4348    1.1128   -0.4585 H   0  0  0  0  0  0  0  0  0  0  0  0
    4.0372    0.8858   -1.5224 H   0  0  0  0  0  0  0  0  0  0  0  0
    3.4211    1.3472    2.1680 H   0  0  0  0  0  0  0  0  0  0  0  0
   -3.4316    0.9943    1.5342 H   0  0  0  0  0  0  0  0  0  0  0  0
   -2.1235   -1.7658   -0.5452 H   0  0  0  0  0  0  0  0  0  0  0  0
   -3.3258   -0.8016   -2.4839 H   0  0  0  0  0  0  0  0  0  0  0  0
   -3.3321    0.8003   -1.7294 H   0  0  0  0  0  0  0  0  0  0  0  0
   -1.8079    0.0699   -2.2520 H   0  0  0  0  0  0  0  0  0  0  0  0
   -4.6973   -0.3065    0.1491 H   0  0  0  0  0  0  0  0  0  0  0  0
   -3.9638   -1.6061    1.1165 H   0  0  0  0  0  0  0  0  0  0  0  0
   -4.4974   -1.9183   -0.5387 H   0  0  0  0  0  0  0  0  0  0  0  0
  1  2  1  0
  2  3  1  0
  3  4  2  0
  4  5  1  0
  5  6  2  0
  6  7  1  0
  7  8  1  0
  8  9  1  0
  6 10  1  0
  5 11  1  0
 11 12  1  0
 12 13  2  0
 12 14  1  0
 14 15  2  0
 15 16  1  0
 16 17  1  0
 16 18  1  0
  7  2  2  0
 15  4  1  0
  1 19  1  0
  1 20  1  0
  1 21  1  0
  3 22  1  0
  9 23  1  0
  9 24  1  0
  9 25  1  0
 10 26  1  0
 14 27  1  0
 16 28  1  0
 17 29  1  0
 17 30  1  0
 17 31  1  0
 18 32  1  0
 18 33  1  0
 18 34  1  0
M  END
>  <Name>  (791) 
Dryofracoumarin A

>  <PubChem ID>  (791) 
102236068

>  <CDB ID>  (791) 
CDB0791

>  <Smiles>  (791) 
CC1=CC2=C(C(=C1OC)O)OC(=O)C=C2C(C)C

>  <Chemical class>  (791) 
Simple coumarins

>  <Natural source>  (791) 
Dryopteris fragrans

>  <Molecular Formula>  (791) 
C14H16O4

>  <InChI-Key>  (791) 
YUDKCHUOSDKDSU-UHFFFAOYSA-N

>  <Total Molweight>  (791) 
248.277

>  <cLogP>  (791) 
2.1765

>  <cLogS>  (791) 
-2.595

>  <H-Acceptors>  (791) 
4

>  <H-Donors>  (791) 
1

>  <Rotatable Bonds>  (791) 
2

>  <Polar Surface Area>  (791) 
55.76

$$$$
CDB0792
     RDKit          3D

 60 63  0  0  0  0  0  0  0  0999 V2000
   -3.0942    0.6817   -3.1650 C   0  0  0  0  0  0  0  0  0  0  0  0
   -2.7599    0.3299   -1.8302 O   0  0  0  0  0  0  0  0  0  0  0  0
   -3.7773    0.2212   -0.9218 C   0  0  0  0  0  0  0  0  0  0  0  0
   -3.4014    0.0648    0.4258 C   0  0  0  0  0  0  0  0  0  0  0  0
   -4.3663    0.0084    1.4317 C   0  0  0  0  0  0  0  0  0  0  0  0
   -5.7100    0.0555    1.0803 C   0  0  0  0  0  0  0  0  0  0  0  0
   -6.1122    0.1739   -0.2472 C   0  0  0  0  0  0  0  0  0  0  0  0
   -5.1398    0.2595   -1.2501 C   0  0  0  0  0  0  0  0  0  0  0  0
   -7.5347    0.2127   -0.5484 C   0  0  0  0  0  0  0  0  0  0  0  0
   -8.4212    0.1374    0.4490 C   0  0  0  0  0  0  0  0  0  0  0  0
   -8.0167    0.0159    1.8608 C   0  0  0  0  0  0  0  0  0  0  0  0
   -8.8590   -0.0485    2.7485 O   0  0  0  0  0  0  0  0  0  0  0  0
   -6.6541   -0.0204    2.1225 O   0  0  0  0  0  0  0  0  0  0  0  0
   -2.0970    0.0479    0.8501 O   0  0  0  0  0  0  0  0  0  0  0  0
   -1.3225   -1.0417    0.3089 C   0  0  0  0  0  0  0  0  0  0  0  0
   -0.8302   -1.9188    1.4792 C   0  0  0  0  0  0  0  0  0  0  0  0
    0.0196   -1.0739    2.4410 C   0  0  0  0  0  0  0  0  0  0  0  0
    0.9462   -0.0930    1.6983 C   0  0  0  0  0  0  0  0  0  0  0  0
    1.0421   -0.4483    0.1997 C   0  0  0  0  0  0  0  0  0  0  0  0
   -0.2274   -0.5307   -0.4639 O   0  0  0  0  0  0  0  0  0  0  0  0
    1.9172    0.5497   -0.5751 C   0  0  0  0  0  0  0  0  0  0  0  0
    3.2678    0.5442   -0.1034 O   0  0  0  0  0  0  0  0  0  0  0  0
    4.0949   -0.3904   -0.7924 C   0  0  0  0  0  0  0  0  0  0  0  0
    5.4573   -0.4747   -0.0870 C   0  0  0  0  0  0  0  0  0  0  0  0
    6.2778    0.5736   -0.8303 C   0  0  0  0  0  0  0  0  0  0  0  0
    5.6942    0.4994   -2.2371 C   0  0  0  0  0  0  0  0  0  0  0  0
    4.3352    0.0614   -2.1339 O   0  0  0  0  0  0  0  0  0  0  0  0
    6.1374    1.9780   -0.2297 C   0  0  0  0  0  0  0  0  0  0  0  0
    6.7524    2.0038    1.0621 O   0  0  0  0  0  0  0  0  0  0  0  0
    7.6772    0.2311   -0.8149 O   0  0  0  0  0  0  0  0  0  0  0  0
    6.0586   -1.7703   -0.2917 O   0  0  0  0  0  0  0  0  0  0  0  0
    0.4619    1.2458    1.8780 O   0  0  0  0  0  0  0  0  0  0  0  0
   -0.8452   -0.3549    3.3451 O   0  0  0  0  0  0  0  0  0  0  0  0
   -1.9056   -2.5357    2.1976 O   0  0  0  0  0  0  0  0  0  0  0  0
   -3.6601   -0.1197   -3.6508 H   0  0  0  0  0  0  0  0  0  0  0  0
   -2.1604    0.8127   -3.7202 H   0  0  0  0  0  0  0  0  0  0  0  0
   -3.6399    1.6303   -3.2020 H   0  0  0  0  0  0  0  0  0  0  0  0
   -4.0758   -0.0781    2.4737 H   0  0  0  0  0  0  0  0  0  0  0  0
   -5.4626    0.3591   -2.2812 H   0  0  0  0  0  0  0  0  0  0  0  0
   -7.8580    0.3025   -1.5796 H   0  0  0  0  0  0  0  0  0  0  0  0
   -9.4888    0.1629    0.2675 H   0  0  0  0  0  0  0  0  0  0  0  0
   -1.9285   -1.6721   -0.3543 H   0  0  0  0  0  0  0  0  0  0  0  0
   -0.2122   -2.7274    1.0709 H   0  0  0  0  0  0  0  0  0  0  0  0
    0.6126   -1.7552    3.0618 H   0  0  0  0  0  0  0  0  0  0  0  0
    1.9454   -0.1275    2.1483 H   0  0  0  0  0  0  0  0  0  0  0  0
    1.5056   -1.4396    0.1203 H   0  0  0  0  0  0  0  0  0  0  0  0
    1.5271    1.5657   -0.4473 H   0  0  0  0  0  0  0  0  0  0  0  0
    1.8706    0.3518   -1.6533 H   0  0  0  0  0  0  0  0  0  0  0  0
    3.6133   -1.3735   -0.8334 H   0  0  0  0  0  0  0  0  0  0  0  0
    5.3838   -0.3064    0.9924 H   0  0  0  0  0  0  0  0  0  0  0  0
    6.2318   -0.2247   -2.8600 H   0  0  0  0  0  0  0  0  0  0  0  0
    5.7210    1.4594   -2.7626 H   0  0  0  0  0  0  0  0  0  0  0  0
    6.6657    2.7150   -0.8447 H   0  0  0  0  0  0  0  0  0  0  0  0
    5.0994    2.3033   -0.1271 H   0  0  0  0  0  0  0  0  0  0  0  0
    7.6545    1.6545    0.9180 H   0  0  0  0  0  0  0  0  0  0  0  0
    7.7279   -0.6820   -1.1615 H   0  0  0  0  0  0  0  0  0  0  0  0
    6.7254   -1.8671    0.4144 H   0  0  0  0  0  0  0  0  0  0  0  0
    0.5288    1.4374    2.8328 H   0  0  0  0  0  0  0  0  0  0  0  0
   -1.2654    0.3405    2.7899 H   0  0  0  0  0  0  0  0  0  0  0  0
   -2.1264   -1.9160    2.9234 H   0  0  0  0  0  0  0  0  0  0  0  0
  1  2  1  0
  2  3  1  0
  3  4  1  0
  4  5  2  0
  5  6  1  0
  6  7  2  0
  7  8  1  0
  7  9  1  0
  9 10  2  0
 10 11  1  0
 11 12  2  0
 11 13  1  0
  4 14  1  0
 14 15  1  0
 15 16  1  0
 16 17  1  0
 17 18  1  0
 18 19  1  0
 19 20  1  0
 19 21  1  0
 21 22  1  0
 22 23  1  0
 23 24  1  0
 24 25  1  0
 25 26  1  0
 26 27  1  0
 25 28  1  0
 28 29  1  0
 25 30  1  0
 24 31  1  0
 18 32  1  0
 17 33  1  0
 16 34  1  0
  8  3  2  0
 13  6  1  0
 20 15  1  0
 27 23  1  0
  1 35  1  0
  1 36  1  0
  1 37  1  0
  5 38  1  0
  8 39  1  0
  9 40  1  0
 10 41  1  0
 15 42  1  0
 16 43  1  0
 17 44  1  0
 18 45  1  0
 19 46  1  0
 21 47  1  0
 21 48  1  0
 23 49  1  0
 24 50  1  0
 26 51  1  0
 26 52  1  0
 28 53  1  0
 28 54  1  0
 29 55  1  0
 30 56  1  0
 31 57  1  0
 32 58  1  0
 33 59  1  0
 34 60  1  0
M  END
>  <Name>  (792) 
Hymexelsin

>  <PubChem ID>  (792) 
14136086

>  <CDB ID>  (792) 
CDB0792

>  <Smiles>  (792) 
COC1=C(C=C2C(=C1)C=CC(=O)O2)OC3C(C(C(C(O3)COC4C(C(CO4)(CO)O)O)O)O)O

>  <Chemical class>  (792) 
Simple coumarins

>  <Natural source>  (792) 
Pauridiantha callicarpoides

>  <Molecular Formula>  (792) 
C21H26O13

>  <InChI-Key>  (792) 
DCERMUGUBKSKBM-UHFFFAOYSA-N

>  <Total Molweight>  (792) 
486.424

>  <cLogP>  (792) 
-2.2613

>  <cLogS>  (792) 
-1.538

>  <H-Acceptors>  (792) 
13

>  <H-Donors>  (792) 
6

>  <Rotatable Bonds>  (792) 
7

>  <Polar Surface Area>  (792) 
193.83

$$$$
CDB0793
     RDKit          3D

 54 57  0  0  0  0  0  0  0  0999 V2000
   -4.3580   -3.7654    1.4381 C   0  0  0  0  0  0  0  0  0  0  0  0
   -3.8880   -2.9614    0.2528 C   0  0  0  0  0  0  0  0  0  0  0  0
   -2.5724   -2.8459   -0.0192 C   0  0  0  0  0  0  0  0  0  0  0  0
   -1.9190   -2.0898   -1.1483 C   0  0  0  0  0  0  0  0  0  0  0  0
   -1.0493   -0.9500   -0.6520 C   0  0  0  0  0  0  0  0  0  0  0  0
    0.2926   -1.1374   -0.2509 C   0  0  0  0  0  0  0  0  0  0  0  0
    1.0896   -0.0718    0.2267 C   0  0  0  0  0  0  0  0  0  0  0  0
    0.5029    1.1992    0.2836 C   0  0  0  0  0  0  0  0  0  0  0  0
   -0.8155    1.4284   -0.1314 C   0  0  0  0  0  0  0  0  0  0  0  0
   -1.5918    0.3427   -0.5593 C   0  0  0  0  0  0  0  0  0  0  0  0
   -2.9094    0.5129   -0.9115 O   0  0  0  0  0  0  0  0  0  0  0  0
   -1.4341    2.7758   -0.1108 C   0  0  0  0  0  0  0  0  0  0  0  0
   -2.6106    2.8609    0.2434 O   0  0  0  0  0  0  0  0  0  0  0  0
   -0.7200    3.9898   -0.5739 C   0  0  0  0  0  0  0  0  0  0  0  0
    0.1951    3.9426   -1.6329 C   0  0  0  0  0  0  0  0  0  0  0  0
    0.8364    5.1112   -2.0482 C   0  0  0  0  0  0  0  0  0  0  0  0
    0.5562    6.3245   -1.4190 C   0  0  0  0  0  0  0  0  0  0  0  0
   -0.3716    6.3766   -0.3789 C   0  0  0  0  0  0  0  0  0  0  0  0
   -1.0154    5.2119    0.0403 C   0  0  0  0  0  0  0  0  0  0  0  0
    1.2208    2.2970    0.8081 O   0  0  0  0  0  0  0  0  0  0  0  0
    2.5255    2.1935    1.2455 C   0  0  0  0  0  0  0  0  0  0  0  0
    3.1497    3.1491    1.6883 O   0  0  0  0  0  0  0  0  0  0  0  0
    3.1369    0.8680    1.1507 C   0  0  0  0  0  0  0  0  0  0  0  0
    2.4949   -0.2148    0.6820 C   0  0  0  0  0  0  0  0  0  0  0  0
    3.3169   -1.4432    0.6874 C   0  0  0  0  0  0  0  0  0  0  0  0
    3.3815   -2.2460    1.8346 C   0  0  0  0  0  0  0  0  0  0  0  0
    4.1819   -3.3898    1.8483 C   0  0  0  0  0  0  0  0  0  0  0  0
    4.9234   -3.7363    0.7193 C   0  0  0  0  0  0  0  0  0  0  0  0
    4.8656   -2.9419   -0.4254 C   0  0  0  0  0  0  0  0  0  0  0  0
    4.0665   -1.7972   -0.4423 C   0  0  0  0  0  0  0  0  0  0  0  0
    0.8622   -2.3822   -0.3169 O   0  0  0  0  0  0  0  0  0  0  0  0
   -5.0020   -2.3261   -0.5338 C   0  0  0  0  0  0  0  0  0  0  0  0
   -4.9179   -3.1280    2.1305 H   0  0  0  0  0  0  0  0  0  0  0  0
   -3.5274   -4.2112    1.9954 H   0  0  0  0  0  0  0  0  0  0  0  0
   -5.0113   -4.5798    1.1082 H   0  0  0  0  0  0  0  0  0  0  0  0
   -1.8770   -3.3546    0.6473 H   0  0  0  0  0  0  0  0  0  0  0  0
   -2.6422   -1.7179   -1.8796 H   0  0  0  0  0  0  0  0  0  0  0  0
   -1.3097   -2.7899   -1.7337 H   0  0  0  0  0  0  0  0  0  0  0  0
   -3.2246    1.3602   -0.5208 H   0  0  0  0  0  0  0  0  0  0  0  0
    0.4120    3.0125   -2.1502 H   0  0  0  0  0  0  0  0  0  0  0  0
    1.5529    5.0785   -2.8653 H   0  0  0  0  0  0  0  0  0  0  0  0
    1.0585    7.2330   -1.7428 H   0  0  0  0  0  0  0  0  0  0  0  0
   -0.5938    7.3240    0.1057 H   0  0  0  0  0  0  0  0  0  0  0  0
   -1.7420    5.2584    0.8488 H   0  0  0  0  0  0  0  0  0  0  0  0
    4.1649    0.8277    1.4980 H   0  0  0  0  0  0  0  0  0  0  0  0
    2.8054   -1.9874    2.7196 H   0  0  0  0  0  0  0  0  0  0  0  0
    4.2261   -4.0106    2.7392 H   0  0  0  0  0  0  0  0  0  0  0  0
    5.5453   -4.6278    0.7306 H   0  0  0  0  0  0  0  0  0  0  0  0
    5.4412   -3.2146   -1.3060 H   0  0  0  0  0  0  0  0  0  0  0  0
    4.0253   -1.1884   -1.3420 H   0  0  0  0  0  0  0  0  0  0  0  0
    0.1893   -3.0755   -0.3811 H   0  0  0  0  0  0  0  0  0  0  0  0
   -5.5762   -1.6504    0.1090 H   0  0  0  0  0  0  0  0  0  0  0  0
   -4.6605   -1.7449   -1.3917 H   0  0  0  0  0  0  0  0  0  0  0  0
   -5.6798   -3.0982   -0.9134 H   0  0  0  0  0  0  0  0  0  0  0  0
  1  2  1  0
  2  3  2  3
  3  4  1  0
  4  5  1  0
  5  6  1  0
  6  7  2  0
  7  8  1  0
  8  9  2  0
  9 10  1  0
 10 11  1  0
  9 12  1  0
 12 13  2  0
 12 14  1  0
 14 15  2  0
 15 16  1  0
 16 17  2  0
 17 18  1  0
 18 19  2  0
  8 20  1  0
 20 21  1  0
 21 22  2  0
 21 23  1  0
 23 24  2  0
 24 25  1  0
 25 26  2  0
 26 27  1  0
 27 28  2  0
 28 29  1  0
 29 30  2  0
  6 31  1  0
  2 32  1  0
 10  5  2  0
 24  7  1  0
 19 14  1  0
 30 25  1  0
  1 33  1  0
  1 34  1  0
  1 35  1  0
  3 36  1  0
  4 37  1  0
  4 38  1  0
 11 39  1  0
 15 40  1  0
 16 41  1  0
 17 42  1  0
 18 43  1  0
 19 44  1  0
 23 45  1  0
 26 46  1  0
 27 47  1  0
 28 48  1  0
 29 49  1  0
 30 50  1  0
 31 51  1  0
 32 52  1  0
 32 53  1  0
 32 54  1  0
M  END
>  <Name>  (793) 
Pedilanthocoumarin B

>  <PubChem ID>  (793) 
57412145

>  <CDB ID>  (793) 
CDB0793

>  <Smiles>  (793) 
CC(=CCC1=C(C2=C(C(=C1O)C(=O)C3=CC=CC=C3)OC(=O)C=C2C4=CC=CC=C4)O)C

>  <Chemical class>  (793) 
Simple coumarins

>  <Natural source>  (793) 
Mammea neurophylla

>  <Molecular Formula>  (793) 
C27H22O5

>  <InChI-Key>  (793) 
GQLIHCFGTZHRID-UHFFFAOYSA-N

>  <Total Molweight>  (793) 
426.467

>  <cLogP>  (793) 
5.4566

>  <cLogS>  (793) 
-6.022

>  <H-Acceptors>  (793) 
5

>  <H-Donors>  (793) 
2

>  <Rotatable Bonds>  (793) 
5

>  <Polar Surface Area>  (793) 
83.83

$$$$
CDB0794
     RDKit          3D

 33 35  0  0  0  0  0  0  0  0999 V2000
    5.8202    0.0958   -1.1918 C   0  0  0  0  0  0  0  0  0  0  0  0
    5.1683   -0.7549   -0.2545 O   0  0  0  0  0  0  0  0  0  0  0  0
    3.8081   -0.6216   -0.1494 C   0  0  0  0  0  0  0  0  0  0  0  0
    3.1991   -1.4772    0.7800 C   0  0  0  0  0  0  0  0  0  0  0  0
    1.8245   -1.4657    1.0047 C   0  0  0  0  0  0  0  0  0  0  0  0
    1.0266   -0.5783    0.2855 C   0  0  0  0  0  0  0  0  0  0  0  0
   -0.4138   -0.5119    0.4653 C   0  0  0  0  0  0  0  0  0  0  0  0
   -1.1605    0.3487   -0.2476 C   0  0  0  0  0  0  0  0  0  0  0  0
   -0.5221    1.2769   -1.2287 C   0  0  0  0  0  0  0  0  0  0  0  0
   -1.1665    2.0925   -1.8804 O   0  0  0  0  0  0  0  0  0  0  0  0
    0.8595    1.1835   -1.3786 O   0  0  0  0  0  0  0  0  0  0  0  0
    1.6311    0.2710   -0.6358 C   0  0  0  0  0  0  0  0  0  0  0  0
    3.0095    0.2649   -0.8663 C   0  0  0  0  0  0  0  0  0  0  0  0
   -2.6212    0.3789   -0.0204 C   0  0  0  0  0  0  0  0  0  0  0  0
   -3.2597    1.5740    0.3447 C   0  0  0  0  0  0  0  0  0  0  0  0
   -4.6397    1.6080    0.5667 C   0  0  0  0  0  0  0  0  0  0  0  0
   -5.3843    0.4428    0.4236 C   0  0  0  0  0  0  0  0  0  0  0  0
   -4.7740   -0.7508    0.0604 C   0  0  0  0  0  0  0  0  0  0  0  0
   -3.3958   -0.7837   -0.1640 C   0  0  0  0  0  0  0  0  0  0  0  0
   -6.7315    0.4302    0.6296 O   0  0  0  0  0  0  0  0  0  0  0  0
    3.9589   -2.3596    1.5001 O   0  0  0  0  0  0  0  0  0  0  0  0
    5.6937    1.1495   -0.9220 H   0  0  0  0  0  0  0  0  0  0  0  0
    5.4690   -0.0978   -2.2107 H   0  0  0  0  0  0  0  0  0  0  0  0
    6.8903   -0.1304   -1.1594 H   0  0  0  0  0  0  0  0  0  0  0  0
    1.3985   -2.1476    1.7349 H   0  0  0  0  0  0  0  0  0  0  0  0
   -0.8574   -1.1781    1.2001 H   0  0  0  0  0  0  0  0  0  0  0  0
    3.4159    0.9531   -1.5984 H   0  0  0  0  0  0  0  0  0  0  0  0
   -2.6879    2.4939    0.4523 H   0  0  0  0  0  0  0  0  0  0  0  0
   -5.1082    2.5470    0.8440 H   0  0  0  0  0  0  0  0  0  0  0  0
   -5.3694   -1.6522   -0.0541 H   0  0  0  0  0  0  0  0  0  0  0  0
   -2.9368   -1.7241   -0.4610 H   0  0  0  0  0  0  0  0  0  0  0  0
   -7.0215    1.3340    0.8358 H   0  0  0  0  0  0  0  0  0  0  0  0
    4.8770   -2.2110    1.1992 H   0  0  0  0  0  0  0  0  0  0  0  0
  1  2  1  0
  2  3  1  0
  3  4  1  0
  4  5  2  0
  5  6  1  0
  6  7  1  0
  7  8  2  0
  8  9  1  0
  9 10  2  0
  9 11  1  0
 11 12  1  0
 12 13  1  0
  8 14  1  0
 14 15  1  0
 15 16  2  0
 16 17  1  0
 17 18  2  0
 18 19  1  0
 17 20  1  0
  4 21  1  0
 13  3  2  0
 12  6  2  0
 19 14  2  0
  1 22  1  0
  1 23  1  0
  1 24  1  0
  5 25  1  0
  7 26  1  0
 13 27  1  0
 15 28  1  0
 16 29  1  0
 18 30  1  0
 19 31  1  0
 20 32  1  0
 21 33  1  0
M  END
>  <Name>  (794) 
6-Hydroxy-3-(4-Hydroxyphenyl)-7-Methoxy-2H-Chromen-2-One)

>  <PubChem ID>  (794) 
132279934

>  <CDB ID>  (794) 
CDB0794

>  <Smiles>  (794) 
COC1=C(C=C2C=C(C(=O)OC2=C1)C3=CC=C(C=C3)O)O

>  <Chemical class>  (794) 
Simple coumarins

>  <Natural source>  (794) 
Nicotiana tabacum

>  <Molecular Formula>  (794) 
C16H12O5

>  <InChI-Key>  (794) 
UIMVIDVXEYHNEQ-UHFFFAOYSA-N

>  <Total Molweight>  (794) 
284.266

>  <cLogP>  (794) 
1.9912

>  <cLogS>  (794) 
-2.753

>  <H-Acceptors>  (794) 
5

>  <H-Donors>  (794) 
2

>  <Rotatable Bonds>  (794) 
2

>  <Polar Surface Area>  (794) 
75.99

$$$$
CDB0795
     RDKit          3D

 32 33  0  0  0  0  0  0  0  0999 V2000
    5.6155    0.8345   -0.5592 C   0  0  0  0  0  0  0  0  0  0  0  0
    4.3362    1.3340   -0.1864 O   0  0  0  0  0  0  0  0  0  0  0  0
    3.3021    0.4377   -0.1769 C   0  0  0  0  0  0  0  0  0  0  0  0
    3.3912   -0.9185   -0.4993 C   0  0  0  0  0  0  0  0  0  0  0  0
    2.2497   -1.7113   -0.4446 C   0  0  0  0  0  0  0  0  0  0  0  0
    2.3638   -3.0338   -0.7650 O   0  0  0  0  0  0  0  0  0  0  0  0
    1.0274   -1.1598   -0.0720 C   0  0  0  0  0  0  0  0  0  0  0  0
   -0.0942   -2.0049   -0.0354 O   0  0  0  0  0  0  0  0  0  0  0  0
   -1.3485   -1.5211    0.3119 C   0  0  0  0  0  0  0  0  0  0  0  0
   -2.3319   -2.2552    0.3102 O   0  0  0  0  0  0  0  0  0  0  0  0
   -1.4591   -0.0834    0.6695 C   0  0  0  0  0  0  0  0  0  0  0  0
   -2.8206    0.4275    1.0914 C   0  0  0  0  0  0  0  0  0  0  0  0
   -3.8653    0.4013   -0.0412 C   0  0  2  0  0  0  0  0  0  0  0  0
   -4.9143    1.4894    0.1557 C   0  0  0  0  0  0  0  0  0  0  0  0
   -4.5677   -0.8408   -0.0577 O   0  0  0  0  0  0  0  0  0  0  0  0
   -0.3780    0.7121    0.6390 C   0  0  0  0  0  0  0  0  0  0  0  0
    0.9195    0.1848    0.2515 C   0  0  0  0  0  0  0  0  0  0  0  0
    2.0650    0.9835    0.1978 C   0  0  0  0  0  0  0  0  0  0  0  0
    6.3243    1.6671   -0.5168 H   0  0  0  0  0  0  0  0  0  0  0  0
    5.6071    0.4562   -1.5867 H   0  0  0  0  0  0  0  0  0  0  0  0
    5.9596    0.0679    0.1429 H   0  0  0  0  0  0  0  0  0  0  0  0
    4.3252   -1.3837   -0.7941 H   0  0  0  0  0  0  0  0  0  0  0  0
    1.4767   -3.4294   -0.6728 H   0  0  0  0  0  0  0  0  0  0  0  0
   -3.1711   -0.1665    1.9453 H   0  0  0  0  0  0  0  0  0  0  0  0
   -2.7072    1.4574    1.4547 H   0  0  0  0  0  0  0  0  0  0  0  0
   -3.3927    0.5369   -1.0207 H   0  0  0  0  0  0  0  0  0  0  0  0
   -5.6744    1.4354   -0.6314 H   0  0  0  0  0  0  0  0  0  0  0  0
   -5.4386    1.3604    1.1092 H   0  0  0  0  0  0  0  0  0  0  0  0
   -4.4634    2.4863    0.1344 H   0  0  0  0  0  0  0  0  0  0  0  0
   -3.9106   -1.5684   -0.0158 H   0  0  0  0  0  0  0  0  0  0  0  0
   -0.4389    1.7629    0.9060 H   0  0  0  0  0  0  0  0  0  0  0  0
    2.0135    2.0413    0.4467 H   0  0  0  0  0  0  0  0  0  0  0  0
  1  2  1  0
  2  3  1  0
  3  4  2  0
  4  5  1  0
  5  6  1  0
  5  7  2  0
  7  8  1  0
  8  9  1  0
  9 10  2  0
  9 11  1  0
 11 12  1  0
 12 13  1  0
 13 14  1  0
 13 15  1  0
 11 16  2  0
 16 17  1  0
 17 18  2  0
 18  3  1  0
 17  7  1  0
  1 19  1  0
  1 20  1  0
  1 21  1  0
  4 22  1  0
  6 23  1  0
 12 24  1  0
 12 25  1  0
 13 26  1  6
 14 27  1  0
 14 28  1  0
 14 29  1  0
 15 30  1  0
 16 31  1  0
 18 32  1  0
M  END
>  <Name>  (795) 
Talacoumarin A

>  <PubChem ID>  (795) 
101907546

>  <CDB ID>  (795) 
CDB0795

>  <Smiles>  (795) 
COC1=CC(O)=C2OC(=O)C(C[C@H](C)O)=CC2=C1

>  <Chemical class>  (795) 
Simple coumarins

>  <Natural source>  (795) 
Talaromyces flavus

>  <Molecular Formula>  (795) 
C13H14O5

>  <InChI-Key>  (795) 
YQILNNCHDIUIAD-ZETCQYMHSA-N

>  <Total Molweight>  (795) 
250.249

>  <cLogP>  (795) 
1.4089

>  <cLogS>  (795) 
-2.357

>  <H-Acceptors>  (795) 
5

>  <H-Donors>  (795) 
2

>  <Rotatable Bonds>  (795) 
3

>  <Polar Surface Area>  (795) 
75.99

$$$$
CDB0796
     RDKit          3D

 32 33  0  0  0  0  0  0  0  0999 V2000
   -4.6292    2.0224    0.6743 C   0  0  0  0  0  0  0  0  0  0  0  0
   -3.2384    1.8470    0.4390 O   0  0  0  0  0  0  0  0  0  0  0  0
   -2.8070    0.5817    0.1468 C   0  0  0  0  0  0  0  0  0  0  0  0
   -1.4289    0.4265   -0.0594 C   0  0  0  0  0  0  0  0  0  0  0  0
   -0.6062    1.5699    0.0509 O   0  0  0  0  0  0  0  0  0  0  0  0
    0.7668    1.5153   -0.1340 C   0  0  0  0  0  0  0  0  0  0  0  0
    1.4691    2.5181   -0.0515 O   0  0  0  0  0  0  0  0  0  0  0  0
    1.3527    0.1867   -0.4504 C   0  0  0  0  0  0  0  0  0  0  0  0
    2.8484    0.1503   -0.6549 C   0  0  0  0  0  0  0  0  0  0  0  0
    3.6216    0.2062    0.6722 C   0  0  2  0  0  0  0  0  0  0  0  0
    5.1083    0.4474    0.4383 C   0  0  0  0  0  0  0  0  0  0  0  0
    3.4640   -1.0332    1.3696 O   0  0  0  0  0  0  0  0  0  0  0  0
    0.5759   -0.9002   -0.5687 C   0  0  0  0  0  0  0  0  0  0  0  0
   -0.8614   -0.8098   -0.3666 C   0  0  0  0  0  0  0  0  0  0  0  0
   -1.6882   -1.9296   -0.4701 C   0  0  0  0  0  0  0  0  0  0  0  0
   -3.0588   -1.7843   -0.2661 C   0  0  0  0  0  0  0  0  0  0  0  0
   -3.9043   -2.8522   -0.3572 O   0  0  0  0  0  0  0  0  0  0  0  0
   -3.6223   -0.5450    0.0387 C   0  0  0  0  0  0  0  0  0  0  0  0
   -4.9605    1.4383    1.5392 H   0  0  0  0  0  0  0  0  0  0  0  0
   -4.7990    3.0792    0.9020 H   0  0  0  0  0  0  0  0  0  0  0  0
   -5.2143    1.7762   -0.2179 H   0  0  0  0  0  0  0  0  0  0  0  0
    3.1418    0.9851   -1.3038 H   0  0  0  0  0  0  0  0  0  0  0  0
    3.1202   -0.7670   -1.1942 H   0  0  0  0  0  0  0  0  0  0  0  0
    3.2331    0.9964    1.3233 H   0  0  0  0  0  0  0  0  0  0  0  0
    5.5436   -0.3433   -0.1826 H   0  0  0  0  0  0  0  0  0  0  0  0
    5.2812    1.4109   -0.0507 H   0  0  0  0  0  0  0  0  0  0  0  0
    5.6508    0.4358    1.3897 H   0  0  0  0  0  0  0  0  0  0  0  0
    3.9874   -1.7099    0.9079 H   0  0  0  0  0  0  0  0  0  0  0  0
    1.0023   -1.8705   -0.8004 H   0  0  0  0  0  0  0  0  0  0  0  0
   -1.2650   -2.9010   -0.7058 H   0  0  0  0  0  0  0  0  0  0  0  0
   -3.3880   -3.6516   -0.5529 H   0  0  0  0  0  0  0  0  0  0  0  0
   -4.6957   -0.4956    0.1852 H   0  0  0  0  0  0  0  0  0  0  0  0
  1  2  1  0
  2  3  1  0
  3  4  2  0
  4  5  1  0
  5  6  1  0
  6  7  2  0
  6  8  1  0
  8  9  1  0
  9 10  1  0
 10 11  1  0
 10 12  1  0
  8 13  2  0
 13 14  1  0
 14 15  2  0
 15 16  1  0
 16 17  1  0
 16 18  2  0
 18  3  1  0
 14  4  1  0
  1 19  1  0
  1 20  1  0
  1 21  1  0
  9 22  1  0
  9 23  1  0
 10 24  1  1
 11 25  1  0
 11 26  1  0
 11 27  1  0
 12 28  1  0
 13 29  1  0
 15 30  1  0
 17 31  1  0
 18 32  1  0
M  END
>  <Name>  (796) 
Talacoumarin B

>  <PubChem ID>  (796) 
101907547

>  <CDB ID>  (796) 
CDB0796

>  <Smiles>  (796) 
COC1=C2OC(=O)C(C[C@H](C)O)=CC2=CC(O)=C1

>  <Chemical class>  (796) 
Simple coumarins

>  <Natural source>  (796) 
Talaromyces flavus

>  <Molecular Formula>  (796) 
C13H14O5

>  <InChI-Key>  (796) 
JJPPIWBBVUMFEW-ZETCQYMHSA-N

>  <Total Molweight>  (796) 
250.249

>  <cLogP>  (796) 
1.4089

>  <cLogS>  (796) 
-2.357

>  <H-Acceptors>  (796) 
5

>  <H-Donors>  (796) 
2

>  <Rotatable Bonds>  (796) 
3

>  <Polar Surface Area>  (796) 
75.99

$$$$
CDB0797
     RDKit          3D

 42 44  0  0  0  0  0  0  0  0999 V2000
   -2.1510   -2.1830    1.2095 C   0  0  0  0  0  0  0  0  0  0  0  0
   -3.1344   -1.0873    0.8862 C   0  0  0  0  0  0  0  0  0  0  0  0
   -2.7652    0.1492    0.3008 C   0  0  0  0  0  0  0  0  0  0  0  0
   -3.7891    1.0837    0.0832 C   0  0  0  0  0  0  0  0  0  0  0  0
   -5.1264    0.8374    0.4012 C   0  0  0  0  0  0  0  0  0  0  0  0
   -5.4770   -0.3798    0.9626 C   0  0  0  0  0  0  0  0  0  0  0  0
   -4.4893   -1.3319    1.2041 C   0  0  0  0  0  0  0  0  0  0  0  0
   -3.5388    2.3534   -0.4742 O   0  0  0  0  0  0  0  0  0  0  0  0
   -2.2641    2.7449   -0.8241 C   0  0  0  0  0  0  0  0  0  0  0  0
   -2.0301    3.8405   -1.3221 O   0  0  0  0  0  0  0  0  0  0  0  0
   -1.1899    1.7739   -0.6038 C   0  0  0  0  0  0  0  0  0  0  0  0
   -1.3952    0.5495   -0.0978 C   0  0  0  0  0  0  0  0  0  0  0  0
   -0.4237   -0.4050    0.0880 O   0  0  0  0  0  0  0  0  0  0  0  0
    0.9269   -0.1628   -0.3244 C   0  0  0  0  0  0  0  0  0  0  0  0
    1.6986   -1.4960   -0.2017 C   0  0  0  0  0  0  0  0  0  0  0  0
    3.1655   -1.2721   -0.5852 C   0  0  0  0  0  0  0  0  0  0  0  0
    3.7815   -0.1112    0.2136 C   0  0  0  0  0  0  0  0  0  0  0  0
    2.9111    1.1516    0.1371 C   0  0  0  0  0  0  0  0  0  0  0  0
    1.5460    0.8454    0.4773 O   0  0  0  0  0  0  0  0  0  0  0  0
    3.0456    1.8607   -1.2240 C   0  0  0  0  0  0  0  0  0  0  0  0
    2.2422    3.0337   -1.2462 O   0  0  0  0  0  0  0  0  0  0  0  0
    3.9167   -0.5378    1.5820 O   0  0  0  0  0  0  0  0  0  0  0  0
    3.9068   -2.4747   -0.3264 O   0  0  0  0  0  0  0  0  0  0  0  0
    1.6531   -2.0067    1.1487 O   0  0  0  0  0  0  0  0  0  0  0  0
   -2.6436   -3.0385    1.6854 H   0  0  0  0  0  0  0  0  0  0  0  0
   -1.3946   -1.8255    1.9150 H   0  0  0  0  0  0  0  0  0  0  0  0
   -1.6796   -2.5590    0.2962 H   0  0  0  0  0  0  0  0  0  0  0  0
   -5.8830    1.5938    0.2129 H   0  0  0  0  0  0  0  0  0  0  0  0
   -6.5123   -0.5882    1.2182 H   0  0  0  0  0  0  0  0  0  0  0  0
   -4.7827   -2.2795    1.6537 H   0  0  0  0  0  0  0  0  0  0  0  0
   -0.2141    2.1420   -0.8893 H   0  0  0  0  0  0  0  0  0  0  0  0
    0.9171    0.1400   -1.3785 H   0  0  0  0  0  0  0  0  0  0  0  0
    1.2361   -2.2649   -0.8310 H   0  0  0  0  0  0  0  0  0  0  0  0
    3.2350   -1.0671   -1.6589 H   0  0  0  0  0  0  0  0  0  0  0  0
    4.8001    0.0886   -0.1363 H   0  0  0  0  0  0  0  0  0  0  0  0
    3.2345    1.8542    0.9147 H   0  0  0  0  0  0  0  0  0  0  0  0
    4.0872    2.1524   -1.3947 H   0  0  0  0  0  0  0  0  0  0  0  0
    2.7236    1.2270   -2.0542 H   0  0  0  0  0  0  0  0  0  0  0  0
    2.4428    3.5249   -2.0621 H   0  0  0  0  0  0  0  0  0  0  0  0
    3.0027   -0.6527    1.9286 H   0  0  0  0  0  0  0  0  0  0  0  0
    4.3103   -2.3494    0.5596 H   0  0  0  0  0  0  0  0  0  0  0  0
    2.1006   -2.8741    1.1121 H   0  0  0  0  0  0  0  0  0  0  0  0
  1  2  1  0
  2  3  1  0
  3  4  2  0
  4  5  1  0
  5  6  2  0
  6  7  1  0
  4  8  1  0
  8  9  1  0
  9 10  2  0
  9 11  1  0
 11 12  2  0
 12 13  1  0
 13 14  1  0
 14 15  1  0
 15 16  1  0
 16 17  1  0
 17 18  1  0
 18 19  1  0
 18 20  1  0
 20 21  1  0
 17 22  1  0
 16 23  1  0
 15 24  1  0
  7  2  2  0
 12  3  1  0
 19 14  1  0
  1 25  1  0
  1 26  1  0
  1 27  1  0
  5 28  1  0
  6 29  1  0
  7 30  1  0
 11 31  1  0
 14 32  1  0
 15 33  1  0
 16 34  1  0
 17 35  1  0
 18 36  1  0
 20 37  1  0
 20 38  1  0
 21 39  1  0
 22 40  1  0
 23 41  1  0
 24 42  1  0
M  END
>  <Name>  (797) 
Gerberinside

>  <PubChem ID>  (797) 
196468

>  <CDB ID>  (797) 
CDB0797

>  <Smiles>  (797) 
CC1=C2C(=CC=C1)OC(=O)C=C2OC3C(C(C(C(O3)CO)O)O)O

>  <Chemical class>  (797) 
Simple coumarins

>  <Natural source>  (797) 
Ainsliaea fragrans

>  <Molecular Formula>  (797) 
C16H18O8

>  <InChI-Key>  (797) 
DXBGTODWNFZHCD-UHFFFAOYSA-N

>  <Total Molweight>  (797) 
338.311

>  <cLogP>  (797) 
-0.378

>  <cLogS>  (797) 
-1.947

>  <H-Acceptors>  (797) 
8

>  <H-Donors>  (797) 
4

>  <Rotatable Bonds>  (797) 
3

>  <Polar Surface Area>  (797) 
125.68

$$$$
CDB0798
     RDKit          3D

 33 35  0  0  0  0  0  0  0  0999 V2000
   -2.4147    2.3241   -2.1139 C   0  0  0  0  0  0  0  0  0  0  0  0
   -2.3506    1.1581   -1.1705 C   0  0  0  0  0  0  0  0  0  0  0  0
   -1.1098    0.7125   -0.6833 C   0  0  0  0  0  0  0  0  0  0  0  0
   -1.0236   -0.3548    0.2254 C   0  0  0  0  0  0  0  0  0  0  0  0
   -2.2088   -0.9593    0.6383 C   0  0  0  0  0  0  0  0  0  0  0  0
   -3.4501   -0.5185    0.1743 C   0  0  0  0  0  0  0  0  0  0  0  0
   -3.5255    0.5418   -0.7239 C   0  0  0  0  0  0  0  0  0  0  0  0
   -4.5853   -1.1380    0.6139 O   0  0  0  0  0  0  0  0  0  0  0  0
   -2.1999   -2.0367    1.5410 O   0  0  0  0  0  0  0  0  0  0  0  0
   -1.0143   -2.5247    2.0390 C   0  0  0  0  0  0  0  0  0  0  0  0
   -0.9570   -3.4685    2.8264 O   0  0  0  0  0  0  0  0  0  0  0  0
    0.2515   -1.8795    1.6056 C   0  0  0  0  0  0  0  0  0  0  0  0
    0.2690   -0.8440    0.7441 C   0  0  0  0  0  0  0  0  0  0  0  0
    1.5838   -0.2654    0.3849 C   0  0  0  0  0  0  0  0  0  0  0  0
    2.3498   -0.8307   -0.6446 C   0  0  0  0  0  0  0  0  0  0  0  0
    3.5811   -0.2720   -0.9960 C   0  0  0  0  0  0  0  0  0  0  0  0
    4.0404    0.8522   -0.3165 C   0  0  0  0  0  0  0  0  0  0  0  0
    3.2925    1.4240    0.7063 C   0  0  0  0  0  0  0  0  0  0  0  0
    2.0634    0.8652    1.0601 C   0  0  0  0  0  0  0  0  0  0  0  0
    5.2354    1.4303   -0.6277 O   0  0  0  0  0  0  0  0  0  0  0  0
    1.4208   -2.4100    2.1477 O   0  0  0  0  0  0  0  0  0  0  0  0
   -2.4601    3.2600   -1.5486 H   0  0  0  0  0  0  0  0  0  0  0  0
   -3.2968    2.2573   -2.7593 H   0  0  0  0  0  0  0  0  0  0  0  0
   -1.5360    2.3458   -2.7672 H   0  0  0  0  0  0  0  0  0  0  0  0
   -0.2050    1.2128   -1.0261 H   0  0  0  0  0  0  0  0  0  0  0  0
   -4.4879    0.8953   -1.0831 H   0  0  0  0  0  0  0  0  0  0  0  0
   -5.3586   -0.7187    0.2038 H   0  0  0  0  0  0  0  0  0  0  0  0
    1.9919   -1.7112   -1.1729 H   0  0  0  0  0  0  0  0  0  0  0  0
    4.1611   -0.7256   -1.7932 H   0  0  0  0  0  0  0  0  0  0  0  0
    3.6670    2.2988    1.2302 H   0  0  0  0  0  0  0  0  0  0  0  0
    1.4856    1.3137    1.8644 H   0  0  0  0  0  0  0  0  0  0  0  0
    5.6646    0.9002   -1.3190 H   0  0  0  0  0  0  0  0  0  0  0  0
    1.1262   -3.1344    2.7403 H   0  0  0  0  0  0  0  0  0  0  0  0
  1  2  1  0
  2  3  2  0
  3  4  1  0
  4  5  2  0
  5  6  1  0
  6  7  2  0
  6  8  1  0
  5  9  1  0
  9 10  1  0
 10 11  2  0
 10 12  1  0
 12 13  2  0
 13 14  1  0
 14 15  1  0
 15 16  2  0
 16 17  1  0
 17 18  2  0
 18 19  1  0
 17 20  1  0
 12 21  1  0
  7  2  1  0
 13  4  1  0
 19 14  2  0
  1 22  1  0
  1 23  1  0
  1 24  1  0
  3 25  1  0
  7 26  1  0
  8 27  1  0
 15 28  1  0
 16 29  1  0
 18 30  1  0
 19 31  1  0
 20 32  1  0
 21 33  1  0
M  END
>  <Name>  (798) 
3,8-Dihydroxy-4-(4-Hydroxyphenyl)-6-Methylcoumarin

>  <PubChem ID>  (798) 
122187017

>  <CDB ID>  (798) 
CDB0798

>  <Smiles>  (798) 
CC1=CC2=C(C(=C1)O)OC(=O)C(=C2C3=CC=C(C=C3)O)O

>  <Chemical class>  (798) 
Simple coumarins

>  <Natural source>  (798) 
Tolypocladium cylindrosporum

>  <Molecular Formula>  (798) 
C16H12O5

>  <InChI-Key>  (798) 
MDZOYIWYLUYJEL-UHFFFAOYSA-N

>  <Total Molweight>  (798) 
284.266

>  <cLogP>  (798) 
2.1482

>  <cLogS>  (798) 
-3.258

>  <H-Acceptors>  (798) 
5

>  <H-Donors>  (798) 
3

>  <Rotatable Bonds>  (798) 
1

>  <Polar Surface Area>  (798) 
86.99

$$$$
CDB0799
     RDKit          3D

 18 19  0  0  0  0  0  0  0  0999 V2000
   -2.5489   -0.4559   -0.6548 C   0  0  0  0  0  0  0  0  0  0  0  0
   -2.6923    0.2887    0.5184 C   0  0  0  0  0  0  0  0  0  0  0  0
   -1.5634    0.7397    1.1998 C   0  0  0  0  0  0  0  0  0  0  0  0
   -0.3007    0.4375    0.6946 C   0  0  0  0  0  0  0  0  0  0  0  0
   -0.1394   -0.3043   -0.4747 C   0  0  0  0  0  0  0  0  0  0  0  0
   -1.2756   -0.7526   -1.1517 C   0  0  0  0  0  0  0  0  0  0  0  0
    1.2031   -0.5884   -0.9534 C   0  0  0  0  0  0  0  0  0  0  0  0
    2.2585   -0.1379   -0.2710 C   0  0  0  0  0  0  0  0  0  0  0  0
    2.0989    0.6543    0.9775 C   0  0  0  0  0  0  0  0  0  0  0  0
    3.1003    1.0480    1.5718 O   0  0  0  0  0  0  0  0  0  0  0  0
    0.8111    0.9134    1.4155 O   0  0  0  0  0  0  0  0  0  0  0  0
    3.5462   -0.4001   -0.7141 O   0  0  0  0  0  0  0  0  0  0  0  0
   -3.4319   -0.8065   -1.1845 H   0  0  0  0  0  0  0  0  0  0  0  0
   -3.6847    0.5163    0.9000 H   0  0  0  0  0  0  0  0  0  0  0  0
   -1.6667    1.3191    2.1125 H   0  0  0  0  0  0  0  0  0  0  0  0
   -1.1849   -1.3335   -2.0665 H   0  0  0  0  0  0  0  0  0  0  0  0
    1.3339   -1.1647   -1.8621 H   0  0  0  0  0  0  0  0  0  0  0  0
    4.1366    0.0271   -0.0571 H   0  0  0  0  0  0  0  0  0  0  0  0
  1  2  2  0
  2  3  1  0
  3  4  2  0
  4  5  1  0
  5  6  2  0
  5  7  1  0
  7  8  2  0
  8  9  1  0
  9 10  2  0
  9 11  1  0
  8 12  1  0
  6  1  1  0
 11  4  1  0
  1 13  1  0
  2 14  1  0
  3 15  1  0
  6 16  1  0
  7 17  1  0
 12 18  1  0
M  END
>  <Name>  (799) 
3-Hydroxycoumarin

>  <PubChem ID>  (799) 
13650

>  <CDB ID>  (799) 
CDB0799

>  <Smiles>  (799) 
C1=CC=C2C(=C1)C=C(C(=O)O2)O

>  <Chemical class>  (799) 
Simple coumarins

>  <Natural source>  (799) 
Alyxia schlechteri

>  <Molecular Formula>  (799) 
C9H6O3

>  <InChI-Key>  (799) 
MJKVTPMWOKAVMS-UHFFFAOYSA-N

>  <Total Molweight>  (799) 
162.144

>  <cLogP>  (799) 
0.9976

>  <cLogS>  (799) 
-2.301

>  <H-Acceptors>  (799) 
3

>  <H-Donors>  (799) 
1

>  <Rotatable Bonds>  (799) 
0

>  <Polar Surface Area>  (799) 
46.53

$$$$
CDB0800
     RDKit          3D

 31 34  0  0  0  0  0  0  0  0999 V2000
    5.8873    0.0830    1.0150 C   0  0  0  0  0  0  0  0  0  0  0  0
    4.7636    0.3929    1.8664 O   0  0  0  0  0  0  0  0  0  0  0  0
    3.7254    0.1528    1.0212 C   0  0  0  0  0  0  0  0  0  0  0  0
    4.1478   -0.2613   -0.2225 C   0  0  0  0  0  0  0  0  0  0  0  0
    5.5024   -0.3324   -0.3121 O   0  0  0  0  0  0  0  0  0  0  0  0
    3.2569   -0.5578   -1.2290 C   0  0  0  0  0  0  0  0  0  0  0  0
    1.9021   -0.4183   -0.9275 C   0  0  0  0  0  0  0  0  0  0  0  0
    1.4537    0.0012    0.3322 C   0  0  0  0  0  0  0  0  0  0  0  0
    2.3869    0.2948    1.3320 C   0  0  0  0  0  0  0  0  0  0  0  0
    0.0227    0.1179    0.5610 C   0  0  0  0  0  0  0  0  0  0  0  0
   -0.8604   -0.1755   -0.4087 C   0  0  0  0  0  0  0  0  0  0  0  0
   -0.3942   -0.6094   -1.7600 C   0  0  0  0  0  0  0  0  0  0  0  0
   -1.1721   -0.8622   -2.6744 O   0  0  0  0  0  0  0  0  0  0  0  0
    0.9812   -0.7157   -1.9487 O   0  0  0  0  0  0  0  0  0  0  0  0
   -2.3035   -0.0309   -0.1200 C   0  0  0  0  0  0  0  0  0  0  0  0
   -3.1078    0.8000   -0.9148 C   0  0  0  0  0  0  0  0  0  0  0  0
   -4.4714    0.9464   -0.6434 C   0  0  0  0  0  0  0  0  0  0  0  0
   -5.0331    0.2598    0.4270 C   0  0  0  0  0  0  0  0  0  0  0  0
   -4.2568   -0.5701    1.2255 C   0  0  0  0  0  0  0  0  0  0  0  0
   -2.8952   -0.7185    0.9521 C   0  0  0  0  0  0  0  0  0  0  0  0
   -6.3577    0.3727    0.7276 O   0  0  0  0  0  0  0  0  0  0  0  0
    6.5216    0.9732    0.9339 H   0  0  0  0  0  0  0  0  0  0  0  0
    6.4678   -0.7220    1.4801 H   0  0  0  0  0  0  0  0  0  0  0  0
    3.5924   -0.8829   -2.2062 H   0  0  0  0  0  0  0  0  0  0  0  0
    2.0877    0.6232    2.3212 H   0  0  0  0  0  0  0  0  0  0  0  0
   -0.3013    0.4573    1.5410 H   0  0  0  0  0  0  0  0  0  0  0  0
   -2.6803    1.3360   -1.7603 H   0  0  0  0  0  0  0  0  0  0  0  0
   -5.0710    1.5922   -1.2772 H   0  0  0  0  0  0  0  0  0  0  0  0
   -4.7109   -1.1060    2.0543 H   0  0  0  0  0  0  0  0  0  0  0  0
   -2.3055   -1.3838    1.5788 H   0  0  0  0  0  0  0  0  0  0  0  0
   -6.7783    0.9432    0.0634 H   0  0  0  0  0  0  0  0  0  0  0  0
  1  2  1  0
  2  3  1  0
  3  4  1  0
  4  5  1  0
  4  6  2  0
  6  7  1  0
  7  8  2  0
  8  9  1  0
  8 10  1  0
 10 11  2  0
 11 12  1  0
 12 13  2  0
 12 14  1  0
 11 15  1  0
 15 16  1  0
 16 17  2  0
 17 18  1  0
 18 19  2  0
 19 20  1  0
 18 21  1  0
  5  1  1  0
  9  3  2  0
 14  7  1  0
 20 15  2  0
  1 22  1  0
  1 23  1  0
  6 24  1  0
  9 25  1  0
 10 26  1  0
 16 27  1  0
 17 28  1  0
 19 29  1  0
 20 30  1  0
 21 31  1  0
M  END
>  <Name>  (800) 
7-(4-Hydroxyphenyl)-6H-[1,3]Dioxolo[4,5-G]Chromen-6-One

>  <PubChem ID>  (800) 
129882663

>  <CDB ID>  (800) 
CDB0800

>  <Smiles>  (800) 
C1OC2=C(O1)C=C3C(=C2)C=C(C(=O)O3)C4=CC=C(C=C4)O

>  <Chemical class>  (800) 
Simple coumarins

>  <Natural source>  (800) 
Nicotiana tabacum

>  <Molecular Formula>  (800) 
C16H10O5

>  <InChI-Key>  (800) 
QMWXDXCJUQAKSW-UHFFFAOYSA-N

>  <Total Molweight>  (800) 
282.25

>  <cLogP>  (800) 
2.5183

>  <cLogS>  (800) 
-3.742

>  <H-Acceptors>  (800) 
5

>  <H-Donors>  (800) 
1

>  <Rotatable Bonds>  (800) 
1

>  <Polar Surface Area>  (800) 
64.99

$$$$
CDB0801
     RDKit          3D

 39 42  0  0  0  0  0  0  0  0999 V2000
   -5.8620    0.1243   -1.5330 C   0  0  0  0  0  0  0  0  0  0  0  0
   -5.1438   -0.1533   -0.3372 O   0  0  0  0  0  0  0  0  0  0  0  0
   -3.7843    0.0062   -0.3562 C   0  0  0  0  0  0  0  0  0  0  0  0
   -3.0986   -0.0331    0.8687 C   0  0  0  0  0  0  0  0  0  0  0  0
   -1.7098    0.1986    0.8952 C   0  0  0  0  0  0  0  0  0  0  0  0
   -0.9719    0.4194   -0.2729 C   0  0  0  0  0  0  0  0  0  0  0  0
   -1.6625    0.4208   -1.4890 C   0  0  0  0  0  0  0  0  0  0  0  0
   -3.0489    0.2200   -1.5299 C   0  0  0  0  0  0  0  0  0  0  0  0
    0.4874    0.6529   -0.2583 C   0  0  0  0  0  0  0  0  0  0  0  0
    1.2968   -0.3172    0.1988 C   0  0  0  0  0  0  0  0  0  0  0  0
    2.7380   -0.1334    0.2351 C   0  0  0  0  0  0  0  0  0  0  0  0
    3.5964   -1.1277    0.7155 C   0  0  0  0  0  0  0  0  0  0  0  0
    4.9515   -0.8600    0.7145 C   0  0  0  0  0  0  0  0  0  0  0  0
    5.4603    0.3372    0.2616 C   0  0  0  0  0  0  0  0  0  0  0  0
    4.6444    1.3372   -0.2171 C   0  0  0  0  0  0  0  0  0  0  0  0
    3.2736    1.0788   -0.2213 C   0  0  0  0  0  0  0  0  0  0  0  0
    2.4290    2.0919   -0.7116 O   0  0  0  0  0  0  0  0  0  0  0  0
    1.0461    1.9381   -0.7670 C   0  0  0  0  0  0  0  0  0  0  0  0
    0.3359    2.8243   -1.2327 O   0  0  0  0  0  0  0  0  0  0  0  0
    6.8160    0.3899    0.3493 O   0  0  0  0  0  0  0  0  0  0  0  0
    7.1046   -0.9065    0.9131 C   0  0  0  0  0  0  0  0  0  0  0  0
    5.9259   -1.7070    1.1429 O   0  0  0  0  0  0  0  0  0  0  0  0
   -1.0710    0.2055    2.1144 O   0  0  0  0  0  0  0  0  0  0  0  0
   -3.6423   -0.2302    2.1187 O   0  0  0  0  0  0  0  0  0  0  0  0
   -4.7772   -1.0873    2.1867 C   0  0  0  0  0  0  0  0  0  0  0  0
   -5.6649    1.1405   -1.8905 H   0  0  0  0  0  0  0  0  0  0  0  0
   -5.6390   -0.6195   -2.3047 H   0  0  0  0  0  0  0  0  0  0  0  0
   -6.9297    0.0541   -1.3040 H   0  0  0  0  0  0  0  0  0  0  0  0
   -1.1309    0.5985   -2.4226 H   0  0  0  0  0  0  0  0  0  0  0  0
   -3.5246    0.2469   -2.5055 H   0  0  0  0  0  0  0  0  0  0  0  0
    0.8973   -1.2569    0.5692 H   0  0  0  0  0  0  0  0  0  0  0  0
    3.2261   -2.0788    1.0816 H   0  0  0  0  0  0  0  0  0  0  0  0
    5.0475    2.2776   -0.5720 H   0  0  0  0  0  0  0  0  0  0  0  0
    7.6246   -0.7660    1.8678 H   0  0  0  0  0  0  0  0  0  0  0  0
    7.7672   -1.4473    0.2277 H   0  0  0  0  0  0  0  0  0  0  0  0
   -1.7873    0.1090    2.7734 H   0  0  0  0  0  0  0  0  0  0  0  0
   -4.8324   -1.4781    3.2077 H   0  0  0  0  0  0  0  0  0  0  0  0
   -5.6962   -0.5223    2.0065 H   0  0  0  0  0  0  0  0  0  0  0  0
   -4.6914   -1.9468    1.5130 H   0  0  0  0  0  0  0  0  0  0  0  0
  1  2  1  0
  2  3  1  0
  3  4  2  0
  4  5  1  0
  5  6  2  0
  6  7  1  0
  7  8  2  0
  6  9  1  0
  9 10  2  0
 10 11  1  0
 11 12  1  0
 12 13  2  0
 13 14  1  0
 14 15  2  0
 15 16  1  0
 16 17  1  0
 17 18  1  0
 18 19  2  0
 14 20  1  0
 20 21  1  0
 21 22  1  0
  5 23  1  0
  4 24  1  0
 24 25  1  0
  8  3  1  0
 18  9  1  0
 16 11  2  0
 22 13  1  0
  1 26  1  0
  1 27  1  0
  1 28  1  0
  7 29  1  0
  8 30  1  0
 10 31  1  0
 12 32  1  0
 15 33  1  0
 21 34  1  0
 21 35  1  0
 23 36  1  0
 25 37  1  0
 25 38  1  0
 25 39  1  0
M  END
>  <Name>  (801) 
7-(2-Hydroxy-3,4-Dimethoxyphenyl)-6H-[1,3]Dioxolo[4,5-G]Chromen-6-One)

>  <PubChem ID>  (801) 
129882653

>  <CDB ID>  (801) 
CDB0801

>  <Smiles>  (801) 
COC1=C(C(=C(C=C1)C2=CC3=CC4=C(C=C3OC2=O)OCO4)O)OC

>  <Chemical class>  (801) 
Simple coumarins

>  <Natural source>  (801) 
Nicotiana tabacum

>  <Molecular Formula>  (801) 
C18H14O7

>  <InChI-Key>  (801) 
IXQPKAKYTZPWSV-UHFFFAOYSA-N

>  <Total Molweight>  (801) 
342.302

>  <cLogP>  (801) 
2.3783

>  <cLogS>  (801) 
-3.778

>  <H-Acceptors>  (801) 
7

>  <H-Donors>  (801) 
1

>  <Rotatable Bonds>  (801) 
3

>  <Polar Surface Area>  (801) 
83.45

$$$$
CDB0802
     RDKit          3D

 22 23  0  0  0  0  0  0  0  0999 V2000
   -2.3435   -1.2956   -0.7762 C   0  0  0  0  0  0  0  0  0  0  0  0
   -1.6946   -0.0321   -0.2933 C   0  0  0  0  0  0  0  0  0  0  0  0
   -2.4110    1.0822   -0.0834 C   0  0  0  0  0  0  0  0  0  0  0  0
   -1.8297    2.3482    0.3888 C   0  0  0  0  0  0  0  0  0  0  0  0
   -2.5372    3.3337    0.5622 O   0  0  0  0  0  0  0  0  0  0  0  0
   -0.4665    2.3605    0.6208 O   0  0  0  0  0  0  0  0  0  0  0  0
    0.3197    1.2100    0.4118 C   0  0  0  0  0  0  0  0  0  0  0  0
    1.6828    1.3401    0.6786 C   0  0  0  0  0  0  0  0  0  0  0  0
    2.4968    0.2380    0.4887 C   0  0  0  0  0  0  0  0  0  0  0  0
    1.9656   -0.9697    0.0421 C   0  0  0  0  0  0  0  0  0  0  0  0
    0.6020   -1.0933   -0.2229 C   0  0  0  0  0  0  0  0  0  0  0  0
   -0.2468    0.0094   -0.0385 C   0  0  0  0  0  0  0  0  0  0  0  0
    2.8312   -2.0165   -0.1229 O   0  0  0  0  0  0  0  0  0  0  0  0
    3.8335    0.3427    0.7436 O   0  0  0  0  0  0  0  0  0  0  0  0
   -3.4227   -1.1705   -0.9199 H   0  0  0  0  0  0  0  0  0  0  0  0
   -2.2059   -2.1051   -0.0514 H   0  0  0  0  0  0  0  0  0  0  0  0
   -1.9232   -1.6055   -1.7389 H   0  0  0  0  0  0  0  0  0  0  0  0
   -3.4816    1.1172   -0.2523 H   0  0  0  0  0  0  0  0  0  0  0  0
    2.0975    2.2802    1.0265 H   0  0  0  0  0  0  0  0  0  0  0  0
    0.2082   -2.0425   -0.5699 H   0  0  0  0  0  0  0  0  0  0  0  0
    2.3291   -2.7886   -0.4356 H   0  0  0  0  0  0  0  0  0  0  0  0
    4.1966   -0.5427    0.5422 H   0  0  0  0  0  0  0  0  0  0  0  0
  1  2  1  0
  2  3  2  0
  3  4  1  0
  4  5  2  0
  4  6  1  0
  6  7  1  0
  7  8  1  0
  8  9  2  0
  9 10  1  0
 10 11  2  0
 11 12  1  0
 10 13  1  0
  9 14  1  0
 12  2  1  0
 12  7  2  0
  1 15  1  0
  1 16  1  0
  1 17  1  0
  3 18  1  0
  8 19  1  0
 11 20  1  0
 13 21  1  0
 14 22  1  0
M  END
>  <Name>  (802) 
4-Methyl-6,7-Dihydroxycoumarin

>  <PubChem ID>  (802) 
5319502

>  <CDB ID>  (802) 
CDB0802

>  <Smiles>  (802) 
CC1=CC(=O)OC2=CC(=C(C=C12)O)O

>  <Chemical class>  (802) 
Simple coumarins

>  <Natural source>  (802) 
Nicotiana tabacum

>  <Molecular Formula>  (802) 
C10H8O4

>  <InChI-Key>  (802) 
KVOJTUXGYQVLAJ-UHFFFAOYSA-N

>  <Total Molweight>  (802) 
192.17

>  <cLogP>  (802) 
0.8842

>  <cLogS>  (802) 
-1.507

>  <H-Acceptors>  (802) 
4

>  <H-Donors>  (802) 
2

>  <Rotatable Bonds>  (802) 
0

>  <Polar Surface Area>  (802) 
66.76

$$$$
CDB0803
     RDKit          3D

 24 25  0  0  0  0  0  0  0  0999 V2000
    3.8765    0.5612   -0.0228 C   0  0  0  0  0  0  0  0  0  0  0  0
    2.4383    0.1834   -0.2196 C   0  0  0  0  0  0  0  0  0  0  0  0
    1.4268    0.6668    0.5162 C   0  0  0  0  0  0  0  0  0  0  0  0
    0.0464    0.2369    0.2811 C   0  0  0  0  0  0  0  0  0  0  0  0
   -0.1960   -0.6078   -0.8010 C   0  0  0  0  0  0  0  0  0  0  0  0
   -1.4753   -1.0596   -1.1215 C   0  0  0  0  0  0  0  0  0  0  0  0
   -2.5503   -0.6717   -0.3208 C   0  0  0  0  0  0  0  0  0  0  0  0
   -2.3284    0.1475    0.7902 C   0  0  0  0  0  0  0  0  0  0  0  0
   -1.0384    0.5991    1.0939 C   0  0  0  0  0  0  0  0  0  0  0  0
   -3.3790    0.5058    1.5882 O   0  0  0  0  0  0  0  0  0  0  0  0
   -3.9098   -1.1460   -0.6484 C   0  0  0  0  0  0  0  0  0  0  0  0
   -4.1246   -1.8626   -1.6197 O   0  0  0  0  0  0  0  0  0  0  0  0
    0.8578   -1.0699   -1.6091 O   0  0  0  0  0  0  0  0  0  0  0  0
    2.1832   -0.7645   -1.3318 C   0  0  0  0  0  0  0  0  0  0  0  0
    3.0971   -1.2379   -1.9984 O   0  0  0  0  0  0  0  0  0  0  0  0
    1.6530    1.5983    1.5094 O   0  0  0  0  0  0  0  0  0  0  0  0
    4.4754   -0.3258    0.2096 H   0  0  0  0  0  0  0  0  0  0  0  0
    4.0184    1.2731    0.7963 H   0  0  0  0  0  0  0  0  0  0  0  0
    4.2780    1.0241   -0.9306 H   0  0  0  0  0  0  0  0  0  0  0  0
   -1.6270   -1.7138   -1.9772 H   0  0  0  0  0  0  0  0  0  0  0  0
   -0.8808    1.2138    1.9749 H   0  0  0  0  0  0  0  0  0  0  0  0
   -3.0586    1.0121    2.3545 H   0  0  0  0  0  0  0  0  0  0  0  0
   -4.7297   -0.8281    0.0163 H   0  0  0  0  0  0  0  0  0  0  0  0
    0.9470    2.2656    1.4700 H   0  0  0  0  0  0  0  0  0  0  0  0
  1  2  1  0
  2  3  2  0
  3  4  1  0
  4  5  1  0
  5  6  2  0
  6  7  1  0
  7  8  2  0
  8  9  1  0
  8 10  1  0
  7 11  1  0
 11 12  2  0
  5 13  1  0
 13 14  1  0
 14 15  2  0
  3 16  1  0
 14  2  1  0
  9  4  2  0
  1 17  1  0
  1 18  1  0
  1 19  1  0
  6 20  1  0
  9 21  1  0
 10 22  1  0
 11 23  1  0
 16 24  1  0
M  END
>  <Name>  (803) 
4,6-Dihydroxy-7-Formyl-3-Methylcoumarin

>  <PubChem ID>  (803) 
132281580

>  <CDB ID>  (803) 
CDB0803

>  <Smiles>  (803) 
CC1=C(C2=C(C=C(C(=C2)O)C=O)OC1=O)O

>  <Chemical class>  (803) 
Simple coumarins

>  <Natural source>  (803) 
Pestalotiopsis versicolor

>  <Molecular Formula>  (803) 
C11H8O5

>  <InChI-Key>  (803) 
IHYVHXNAQASRMF-UHFFFAOYSA-N

>  <Total Molweight>  (803) 
220.18

>  <cLogP>  (803) 
1.143

>  <cLogS>  (803) 
-2.055

>  <H-Acceptors>  (803) 
5

>  <H-Donors>  (803) 
2

>  <Rotatable Bonds>  (803) 
1

>  <Polar Surface Area>  (803) 
83.83

$$$$
CDB0804
     RDKit          3D

 35 36  0  0  0  0  0  0  0  0999 V2000
   -3.4038    0.0975    1.8513 C   0  0  0  0  0  0  0  0  0  0  0  0
   -2.4514    0.0599    0.6457 C   0  0  0  0  0  0  0  0  0  0  0  0
   -3.2420    0.3957   -0.6238 C   0  0  0  0  0  0  0  0  0  0  0  0
   -1.4765    1.0870    0.8555 O   0  0  0  0  0  0  0  0  0  0  0  0
   -1.7427   -1.3280    0.5705 C   0  0  1  0  0  0  0  0  0  0  0  0
   -2.7177   -2.3866    0.5374 O   0  0  0  0  0  0  0  0  0  0  0  0
   -0.7701   -1.5431   -0.6113 C   0  0  0  0  0  0  0  0  0  0  0  0
    0.4788   -0.6943   -0.6183 C   0  0  0  0  0  0  0  0  0  0  0  0
    0.7540    0.2059   -1.6581 C   0  0  0  0  0  0  0  0  0  0  0  0
   -0.1297    0.3143   -2.6956 O   0  0  0  0  0  0  0  0  0  0  0  0
    1.9103    0.9835   -1.6527 C   0  0  0  0  0  0  0  0  0  0  0  0
    2.8019    0.8501   -0.5925 C   0  0  0  0  0  0  0  0  0  0  0  0
    3.9598    1.6526   -0.6187 O   0  0  0  0  0  0  0  0  0  0  0  0
    4.9025    1.5835    0.3980 C   0  0  0  0  0  0  0  0  0  0  0  0
    5.9170    2.2715    0.3988 O   0  0  0  0  0  0  0  0  0  0  0  0
    4.6362    0.6356    1.4941 C   0  0  0  0  0  0  0  0  0  0  0  0
    3.5428   -0.1322    1.5282 C   0  0  0  0  0  0  0  0  0  0  0  0
    2.5700   -0.0394    0.4522 C   0  0  0  0  0  0  0  0  0  0  0  0
    1.4082   -0.8147    0.4331 C   0  0  0  0  0  0  0  0  0  0  0  0
   -4.2195   -0.6260    1.7546 H   0  0  0  0  0  0  0  0  0  0  0  0
   -3.8442    1.0943    1.9713 H   0  0  0  0  0  0  0  0  0  0  0  0
   -2.8607   -0.1114    2.7801 H   0  0  0  0  0  0  0  0  0  0  0  0
   -3.9974   -0.3630   -0.8496 H   0  0  0  0  0  0  0  0  0  0  0  0
   -2.5822    0.5034   -1.4893 H   0  0  0  0  0  0  0  0  0  0  0  0
   -3.7526    1.3604   -0.5184 H   0  0  0  0  0  0  0  0  0  0  0  0
   -1.9343    1.9447    0.8578 H   0  0  0  0  0  0  0  0  0  0  0  0
   -1.1818   -1.4682    1.5028 H   0  0  0  0  0  0  0  0  0  0  0  0
   -3.1031   -2.4086   -0.3555 H   0  0  0  0  0  0  0  0  0  0  0  0
   -0.4453   -2.5939   -0.6029 H   0  0  0  0  0  0  0  0  0  0  0  0
   -1.3199   -1.4571   -1.5556 H   0  0  0  0  0  0  0  0  0  0  0  0
    0.2004    0.9828   -3.3185 H   0  0  0  0  0  0  0  0  0  0  0  0
    2.1298    1.6848   -2.4501 H   0  0  0  0  0  0  0  0  0  0  0  0
    5.3842    0.5985    2.2764 H   0  0  0  0  0  0  0  0  0  0  0  0
    3.3646   -0.8222    2.3455 H   0  0  0  0  0  0  0  0  0  0  0  0
    1.2145   -1.5172    1.2412 H   0  0  0  0  0  0  0  0  0  0  0  0
  1  2  1  0
  2  3  1  0
  2  4  1  0
  2  5  1  0
  5  6  1  0
  5  7  1  0
  7  8  1  0
  8  9  2  0
  9 10  1  0
  9 11  1  0
 11 12  2  0
 12 13  1  0
 13 14  1  0
 14 15  2  0
 14 16  1  0
 16 17  2  0
 17 18  1  0
 18 19  2  0
 19  8  1  0
 18 12  1  0
  1 20  1  0
  1 21  1  0
  1 22  1  0
  3 23  1  0
  3 24  1  0
  3 25  1  0
  4 26  1  0
  5 27  1  1
  6 28  1  0
  7 29  1  0
  7 30  1  0
 10 31  1  0
 11 32  1  0
 16 33  1  0
 17 34  1  0
 19 35  1  0
M  END
>  <Name>  (804) 
Peucedanol

>  <PubChem ID>  (804) 
15296614

>  <CDB ID>  (804) 
CDB0804

>  <Smiles>  (804) 
CC(C)(O)[C@@H](O)CC1=C(O)C=C2OC(=O)C=CC2=C1

>  <Chemical class>  (804) 
Simple prenylated coumarins

>  <Natural source>  (804) 
Antiaris toxicana

>  <Molecular Formula>  (804) 
C14H16O5

>  <InChI-Key>  (804) 
WRTWKAQFZYXAEJ-LBPRGKRZSA-N

>  <Total Molweight>  (804) 
264.276

>  <cLogP>  (804) 
1.157

>  <cLogS>  (804) 
-2.428

>  <H-Acceptors>  (804) 
5

>  <H-Donors>  (804) 
3

>  <Rotatable Bonds>  (804) 
3

>  <Polar Surface Area>  (804) 
86.99

$$$$
CDB0805
     RDKit          3D

 40 41  0  0  0  0  0  0  0  0999 V2000
   -4.2127    0.0165    1.7498 C   0  0  0  0  0  0  0  0  0  0  0  0
   -3.3846   -0.7083    0.6858 C   0  0  0  0  0  0  0  0  0  0  0  0
   -4.1521   -0.7322   -0.6368 C   0  0  0  0  0  0  0  0  0  0  0  0
   -2.0051   -0.0371    0.5516 C   0  0  0  0  0  0  0  0  0  0  0  0
   -1.0505   -0.7906   -0.3823 C   0  0  0  0  0  0  0  0  0  0  0  0
    0.3306   -0.1598   -0.3879 C   0  0  0  0  0  0  0  0  0  0  0  0
    0.6091    0.9306   -1.2428 C   0  0  0  0  0  0  0  0  0  0  0  0
    1.8615    1.5458   -1.1981 C   0  0  0  0  0  0  0  0  0  0  0  0
    2.8157    1.0993   -0.2847 C   0  0  0  0  0  0  0  0  0  0  0  0
    2.5730    0.0393    0.5833 C   0  0  0  0  0  0  0  0  0  0  0  0
    1.3337   -0.6115    0.4987 C   0  0  0  0  0  0  0  0  0  0  0  0
    1.0572   -1.6618    1.3439 O   0  0  0  0  0  0  0  0  0  0  0  0
    1.4904   -2.8936    0.7585 C   0  0  0  0  0  0  0  0  0  0  0  0
    3.6113   -0.3133    1.5453 C   0  0  0  0  0  0  0  0  0  0  0  0
    4.7737    0.3455    1.5500 C   0  0  0  0  0  0  0  0  0  0  0  0
    5.0626    1.4382    0.6078 C   0  0  0  0  0  0  0  0  0  0  0  0
    6.1471    2.0083    0.6204 O   0  0  0  0  0  0  0  0  0  0  0  0
    4.0509    1.7827   -0.2768 O   0  0  0  0  0  0  0  0  0  0  0  0
   -0.4098    1.3135   -2.0772 O   0  0  0  0  0  0  0  0  0  0  0  0
   -0.1960    2.4529   -2.9008 C   0  0  0  0  0  0  0  0  0  0  0  0
   -3.6984    0.0075    2.7166 H   0  0  0  0  0  0  0  0  0  0  0  0
   -4.3928    1.0603    1.4707 H   0  0  0  0  0  0  0  0  0  0  0  0
   -5.1841   -0.4706    1.8859 H   0  0  0  0  0  0  0  0  0  0  0  0
   -3.2418   -1.7438    1.0197 H   0  0  0  0  0  0  0  0  0  0  0  0
   -3.6457   -1.3542   -1.3808 H   0  0  0  0  0  0  0  0  0  0  0  0
   -4.2609    0.2759   -1.0510 H   0  0  0  0  0  0  0  0  0  0  0  0
   -5.1551   -1.1494   -0.4960 H   0  0  0  0  0  0  0  0  0  0  0  0
   -1.5480    0.0301    1.5480 H   0  0  0  0  0  0  0  0  0  0  0  0
   -2.1299    0.9962    0.2024 H   0  0  0  0  0  0  0  0  0  0  0  0
   -1.4406   -0.8150   -1.4061 H   0  0  0  0  0  0  0  0  0  0  0  0
   -0.9916   -1.8415   -0.0791 H   0  0  0  0  0  0  0  0  0  0  0  0
    2.1204    2.3788   -1.8422 H   0  0  0  0  0  0  0  0  0  0  0  0
    1.1351   -3.7081    1.3967 H   0  0  0  0  0  0  0  0  0  0  0  0
    1.0707   -3.0396   -0.2429 H   0  0  0  0  0  0  0  0  0  0  0  0
    2.5830   -2.9479    0.7175 H   0  0  0  0  0  0  0  0  0  0  0  0
    3.4162   -1.1026    2.2631 H   0  0  0  0  0  0  0  0  0  0  0  0
    5.5610    0.1099    2.2555 H   0  0  0  0  0  0  0  0  0  0  0  0
   -1.1149    2.6320   -3.4673 H   0  0  0  0  0  0  0  0  0  0  0  0
    0.0025    3.3453   -2.2982 H   0  0  0  0  0  0  0  0  0  0  0  0
    0.6086    2.2723   -3.6210 H   0  0  0  0  0  0  0  0  0  0  0  0
  1  2  1  0
  2  3  1  0
  2  4  1  0
  4  5  1  0
  5  6  1  0
  6  7  2  0
  7  8  1  0
  8  9  2  0
  9 10  1  0
 10 11  2  0
 11 12  1  0
 12 13  1  0
 10 14  1  0
 14 15  2  0
 15 16  1  0
 16 17  2  0
 16 18  1  0
  7 19  1  0
 19 20  1  0
 11  6  1  0
 18  9  1  0
  1 21  1  0
  1 22  1  0
  1 23  1  0
  2 24  1  0
  3 25  1  0
  3 26  1  0
  3 27  1  0
  4 28  1  0
  4 29  1  0
  5 30  1  0
  5 31  1  0
  8 32  1  0
 13 33  1  0
 13 34  1  0
 13 35  1  0
 14 36  1  0
 15 37  1  0
 20 38  1  0
 20 39  1  0
 20 40  1  0
M  END
>  <Name>  (805) 
5,7-Dimethoxy-6-(3-Methylbutyl)-Coumarin

>  <PubChem ID>  (805) 
90655370

>  <CDB ID>  (805) 
CDB0805

>  <Smiles>  (805) 
CC(C)CCC1=C(C=C2C(=C1OC)C=CC(=O)O2)OC

>  <Chemical class>  (805) 
Simple prenylated coumarins

>  <Natural source>  (805) 
Toddalia asiatica

>  <Molecular Formula>  (805) 
C16H20O4

>  <InChI-Key>  (805) 
CKUPAJFPLMPMSM-UHFFFAOYSA-N

>  <Total Molweight>  (805) 
276.331

>  <cLogP>  (805) 
3.244

>  <cLogS>  (805) 
-3.609

>  <H-Acceptors>  (805) 
4

>  <H-Donors>  (805) 
0

>  <Rotatable Bonds>  (805) 
5

>  <Polar Surface Area>  (805) 
44.76

$$$$
CDB0806
     RDKit          3D

 36 38  0  0  0  0  0  0  0  0999 V2000
   -4.3179    0.0114    0.1024 C   0  0  0  0  0  0  0  0  0  0  0  0
   -3.2634   -1.0176   -0.2927 C   0  0  0  0  0  0  0  0  0  0  0  0
   -1.9959   -0.4019   -0.8708 C   0  0  0  0  0  0  0  0  0  0  0  0
   -1.2232   -0.0333    0.3975 C   0  0  0  0  0  0  0  0  0  0  0  0
   -1.5276   -1.0819    1.3354 O   0  0  0  0  0  0  0  0  0  0  0  0
   -2.6961   -1.6774    0.9589 C   0  0  0  0  0  0  0  0  0  0  0  0
   -3.2239   -2.6059    1.5542 O   0  0  0  0  0  0  0  0  0  0  0  0
    0.2666    0.1625    0.1988 C   0  0  0  0  0  0  0  0  0  0  0  0
    0.7438    1.3528   -0.3930 C   0  0  0  0  0  0  0  0  0  0  0  0
    2.1156    1.5305   -0.5852 C   0  0  0  0  0  0  0  0  0  0  0  0
    2.9971    0.5228   -0.1968 C   0  0  0  0  0  0  0  0  0  0  0  0
    2.5529   -0.6617    0.3788 C   0  0  0  0  0  0  0  0  0  0  0  0
    1.1839   -0.8398    0.5752 C   0  0  0  0  0  0  0  0  0  0  0  0
    3.5261   -1.6744    0.7526 C   0  0  0  0  0  0  0  0  0  0  0  0
    4.8259   -1.4475    0.5404 C   0  0  0  0  0  0  0  0  0  0  0  0
    5.3215   -0.1981   -0.0632 C   0  0  0  0  0  0  0  0  0  0  0  0
    6.5213   -0.0209   -0.2398 O   0  0  0  0  0  0  0  0  0  0  0  0
    4.3713    0.7517   -0.4136 O   0  0  0  0  0  0  0  0  0  0  0  0
   -0.2174    2.2703   -0.7356 O   0  0  0  0  0  0  0  0  0  0  0  0
    0.2187    3.4507   -1.4016 C   0  0  0  0  0  0  0  0  0  0  0  0
   -1.3168   -1.4016   -1.6536 O   0  0  0  0  0  0  0  0  0  0  0  0
   -3.8403   -1.9246   -1.2307 O   0  0  0  0  0  0  0  0  0  0  0  0
   -5.2061   -0.4875    0.5076 H   0  0  0  0  0  0  0  0  0  0  0  0
   -4.6499    0.5802   -0.7732 H   0  0  0  0  0  0  0  0  0  0  0  0
   -3.9608    0.7155    0.8603 H   0  0  0  0  0  0  0  0  0  0  0  0
   -2.1811    0.4525   -1.5289 H   0  0  0  0  0  0  0  0  0  0  0  0
   -1.6274    0.8812    0.8510 H   0  0  0  0  0  0  0  0  0  0  0  0
    2.5291    2.4287   -1.0294 H   0  0  0  0  0  0  0  0  0  0  0  0
    0.8198   -1.7672    1.0135 H   0  0  0  0  0  0  0  0  0  0  0  0
    3.1813   -2.6016    1.1971 H   0  0  0  0  0  0  0  0  0  0  0  0
    5.5828   -2.1762    0.8034 H   0  0  0  0  0  0  0  0  0  0  0  0
    0.7143    3.2109   -2.3481 H   0  0  0  0  0  0  0  0  0  0  0  0
    0.8655    4.0513   -0.7539 H   0  0  0  0  0  0  0  0  0  0  0  0
   -0.6679    4.0490   -1.6328 H   0  0  0  0  0  0  0  0  0  0  0  0
   -2.0216   -1.8672   -2.1509 H   0  0  0  0  0  0  0  0  0  0  0  0
   -4.4002   -2.5357   -0.7105 H   0  0  0  0  0  0  0  0  0  0  0  0
  1  2  1  0
  2  3  1  0
  3  4  1  0
  4  5  1  0
  5  6  1  0
  6  7  2  0
  4  8  1  0
  8  9  2  0
  9 10  1  0
 10 11  2  0
 11 12  1  0
 12 13  2  0
 12 14  1  0
 14 15  2  0
 15 16  1  0
 16 17  2  0
 16 18  1  0
  9 19  1  0
 19 20  1  0
  3 21  1  0
  2 22  1  0
  6  2  1  0
 13  8  1  0
 18 11  1  0
  1 23  1  0
  1 24  1  0
  1 25  1  0
  3 26  1  0
  4 27  1  0
 10 28  1  0
 13 29  1  0
 14 30  1  0
 15 31  1  0
 20 32  1  0
 20 33  1  0
 20 34  1  0
 21 35  1  0
 22 36  1  0
M  END
>  <Name>  (806) 
Hydramicromelin D

>  <PubChem ID>  (806) 
102584164

>  <CDB ID>  (806) 
CDB0806

>  <Smiles>  (806) 
CC1(C(C(OC1=O)C2=C(C=C3C(=C2)C=CC(=O)O3)OC)O)O

>  <Chemical class>  (806) 
Simple prenylated coumarins

>  <Natural source>  (806) 
Apiaceae and the Rutaceae plant families

>  <Molecular Formula>  (806) 
C15H14O7

>  <InChI-Key>  (806) 
XSUHWPFITUMCFA-UHFFFAOYSA-N

>  <Total Molweight>  (806) 
306.269

>  <cLogP>  (806) 
-0.1424

>  <cLogS>  (806) 
-2.15

>  <H-Acceptors>  (806) 
7

>  <H-Donors>  (806) 
2

>  <Rotatable Bonds>  (806) 
2

>  <Polar Surface Area>  (806) 
102.29

$$$$
CDB0807
     RDKit          3D

 33 36  0  0  0  0  0  0  0  0999 V2000
   -4.7906    0.4091   -0.2550 C   0  0  0  0  0  0  0  0  0  0  0  0
   -3.4287   -0.0327    0.1396 C   0  0  0  0  0  0  0  0  0  0  0  0
   -2.2330    0.7982   -0.1662 C   0  0  0  0  0  0  0  0  0  0  0  0
   -2.5552   -0.3541   -0.9579 O   0  0  0  0  0  0  0  0  0  0  0  0
   -1.2975    0.6128    0.9840 C   0  0  0  0  0  0  0  0  0  0  0  0
   -1.8933   -0.3692    1.8649 O   0  0  0  0  0  0  0  0  0  0  0  0
   -3.1304   -0.7293    1.4058 C   0  0  0  0  0  0  0  0  0  0  0  0
   -3.8895   -1.5068    1.9596 O   0  0  0  0  0  0  0  0  0  0  0  0
    0.0862    0.2051    0.5149 C   0  0  0  0  0  0  0  0  0  0  0  0
    0.9725    1.1802    0.0049 C   0  0  0  0  0  0  0  0  0  0  0  0
    2.2408    0.8010   -0.4405 C   0  0  0  0  0  0  0  0  0  0  0  0
    2.6142   -0.5408   -0.3828 C   0  0  0  0  0  0  0  0  0  0  0  0
    1.7591   -1.5216    0.1051 C   0  0  0  0  0  0  0  0  0  0  0  0
    0.4926   -1.1455    0.5518 C   0  0  0  0  0  0  0  0  0  0  0  0
    2.2101   -2.9030    0.1314 C   0  0  0  0  0  0  0  0  0  0  0  0
    3.4351   -3.2034   -0.3107 C   0  0  0  0  0  0  0  0  0  0  0  0
    4.3605   -2.1813   -0.8303 C   0  0  0  0  0  0  0  0  0  0  0  0
    5.4780   -2.4912   -1.2264 O   0  0  0  0  0  0  0  0  0  0  0  0
    3.9044   -0.8699   -0.8457 O   0  0  0  0  0  0  0  0  0  0  0  0
    0.4931    2.4655   -0.0133 O   0  0  0  0  0  0  0  0  0  0  0  0
    1.3574    3.4779   -0.5186 C   0  0  0  0  0  0  0  0  0  0  0  0
   -5.4574   -0.4534   -0.3517 H   0  0  0  0  0  0  0  0  0  0  0  0
   -4.7865    0.9403   -1.2128 H   0  0  0  0  0  0  0  0  0  0  0  0
   -5.2083    1.0808    0.5016 H   0  0  0  0  0  0  0  0  0  0  0  0
   -2.3104    1.7876   -0.5836 H   0  0  0  0  0  0  0  0  0  0  0  0
   -1.2310    1.5329    1.5764 H   0  0  0  0  0  0  0  0  0  0  0  0
    2.9552    1.5137   -0.8369 H   0  0  0  0  0  0  0  0  0  0  0  0
   -0.1888   -1.9059    0.9297 H   0  0  0  0  0  0  0  0  0  0  0  0
    1.5445   -3.6713    0.5096 H   0  0  0  0  0  0  0  0  0  0  0  0
    3.8093   -4.2199   -0.3085 H   0  0  0  0  0  0  0  0  0  0  0  0
    1.6025    3.2980   -1.5705 H   0  0  0  0  0  0  0  0  0  0  0  0
    0.8232    4.4311   -0.4599 H   0  0  0  0  0  0  0  0  0  0  0  0
    2.2620    3.5651    0.0921 H   0  0  0  0  0  0  0  0  0  0  0  0
  1  2  1  0
  2  3  1  0
  3  4  1  0
  3  5  1  0
  5  6  1  0
  6  7  1  0
  7  8  2  0
  5  9  1  0
  9 10  2  0
 10 11  1  0
 11 12  2  0
 12 13  1  0
 13 14  2  0
 13 15  1  0
 15 16  2  0
 16 17  1  0
 17 18  2  0
 17 19  1  0
 10 20  1  0
 20 21  1  0
  4  2  1  0
  7  2  1  0
 14  9  1  0
 19 12  1  0
  1 22  1  0
  1 23  1  0
  1 24  1  0
  3 25  1  0
  5 26  1  0
 11 27  1  0
 14 28  1  0
 15 29  1  0
 16 30  1  0
 21 31  1  0
 21 32  1  0
 21 33  1  0
M  END
>  <Name>  (807) 
Micromelin

>  <PubChem ID>  (807) 
73230

>  <CDB ID>  (807) 
CDB0807

>  <Smiles>  (807) 
CC12C(O1)C(OC2=O)C3=C(C=C4C(=C3)C=CC(=O)O4)OC

>  <Chemical class>  (807) 
Simple prenylated coumarins

>  <Natural source>  (807) 
Micromelum integerrimum

>  <Molecular Formula>  (807) 
C15H12O6

>  <InChI-Key>  (807) 
VIORQNDMAWQQCV-UHFFFAOYSA-N

>  <Total Molweight>  (807) 
288.254

>  <cLogP>  (807) 
0.412

>  <cLogS>  (807) 
-2.631

>  <H-Acceptors>  (807) 
6

>  <H-Donors>  (807) 
0

>  <Rotatable Bonds>  (807) 
2

>  <Polar Surface Area>  (807) 
74.36

$$$$
CDB0808
     RDKit          3D

 40 41  0  0  0  0  0  0  0  0999 V2000
   -4.4498   -0.2636   -0.6253 C   0  0  0  0  0  0  0  0  0  0  0  0
   -2.9266   -0.0999   -0.6888 C   0  0  0  0  0  0  0  0  0  0  0  0
   -2.2754   -1.4310   -0.3059 C   0  0  0  0  0  0  0  0  0  0  0  0
   -2.4869    1.0577    0.2325 C   0  0  0  0  0  0  0  0  0  0  0  0
   -1.2089    1.7902   -0.2079 C   0  0  0  0  0  0  0  0  0  0  0  0
    0.0824    1.0203   -0.0435 C   0  0  0  0  0  0  0  0  0  0  0  0
    0.6500    0.8211    1.2280 C   0  0  0  0  0  0  0  0  0  0  0  0
    1.8493    0.1042    1.3576 C   0  0  0  0  0  0  0  0  0  0  0  0
    2.5015   -0.4253    0.2349 C   0  0  0  0  0  0  0  0  0  0  0  0
    1.9459   -0.2323   -1.0400 C   0  0  0  0  0  0  0  0  0  0  0  0
    0.7523    0.4861   -1.1567 C   0  0  0  0  0  0  0  0  0  0  0  0
    0.1666    0.6812   -2.4322 O   0  0  0  0  0  0  0  0  0  0  0  0
    0.7314    0.1850   -3.5962 C   0  0  0  0  0  0  0  0  0  0  0  0
    0.2228    0.3492   -4.6987 O   0  0  0  0  0  0  0  0  0  0  0  0
    1.9895   -0.5585   -3.4477 C   0  0  0  0  0  0  0  0  0  0  0  0
    2.5619   -0.7563   -2.2575 C   0  0  0  0  0  0  0  0  0  0  0  0
    3.6747   -1.1375    0.2839 O   0  0  0  0  0  0  0  0  0  0  0  0
    4.2649   -1.3615    1.5577 C   0  0  0  0  0  0  0  0  0  0  0  0
   -0.0363    1.3763    2.2780 O   0  0  0  0  0  0  0  0  0  0  0  0
    0.4497    1.1428    3.5928 C   0  0  0  0  0  0  0  0  0  0  0  0
   -4.7833   -0.4891    0.3935 H   0  0  0  0  0  0  0  0  0  0  0  0
   -4.7828   -1.0762   -1.2799 H   0  0  0  0  0  0  0  0  0  0  0  0
   -4.9539    0.6517   -0.9534 H   0  0  0  0  0  0  0  0  0  0  0  0
   -2.6628    0.1370   -1.7267 H   0  0  0  0  0  0  0  0  0  0  0  0
   -2.5022   -1.6997    0.7316 H   0  0  0  0  0  0  0  0  0  0  0  0
   -1.1905   -1.4047   -0.4160 H   0  0  0  0  0  0  0  0  0  0  0  0
   -2.6431   -2.2389   -0.9482 H   0  0  0  0  0  0  0  0  0  0  0  0
   -3.2812    1.8163    0.2421 H   0  0  0  0  0  0  0  0  0  0  0  0
   -2.3982    0.7028    1.2661 H   0  0  0  0  0  0  0  0  0  0  0  0
   -1.3307    2.1363   -1.2413 H   0  0  0  0  0  0  0  0  0  0  0  0
   -1.1211    2.7173    0.3752 H   0  0  0  0  0  0  0  0  0  0  0  0
    2.2794   -0.0378    2.3403 H   0  0  0  0  0  0  0  0  0  0  0  0
    2.4268   -0.9384   -4.3625 H   0  0  0  0  0  0  0  0  0  0  0  0
    3.4915   -1.3099   -2.1767 H   0  0  0  0  0  0  0  0  0  0  0  0
    3.6019   -1.9477    2.2025 H   0  0  0  0  0  0  0  0  0  0  0  0
    5.1787   -1.9437    1.4043 H   0  0  0  0  0  0  0  0  0  0  0  0
    4.5488   -0.4167    2.0325 H   0  0  0  0  0  0  0  0  0  0  0  0
    0.4687    0.0727    3.8237 H   0  0  0  0  0  0  0  0  0  0  0  0
   -0.2407    1.6216    4.2939 H   0  0  0  0  0  0  0  0  0  0  0  0
    1.4354    1.5978    3.7343 H   0  0  0  0  0  0  0  0  0  0  0  0
  1  2  1  0
  2  3  1  0
  2  4  1  0
  4  5  1  0
  5  6  1  0
  6  7  2  0
  7  8  1  0
  8  9  2  0
  9 10  1  0
 10 11  2  0
 11 12  1  0
 12 13  1  0
 13 14  2  0
 13 15  1  0
 15 16  2  0
  9 17  1  0
 17 18  1  0
  7 19  1  0
 19 20  1  0
 11  6  1  0
 16 10  1  0
  1 21  1  0
  1 22  1  0
  1 23  1  0
  2 24  1  0
  3 25  1  0
  3 26  1  0
  3 27  1  0
  4 28  1  0
  4 29  1  0
  5 30  1  0
  5 31  1  0
  8 32  1  0
 15 33  1  0
 16 34  1  0
 18 35  1  0
 18 36  1  0
 18 37  1  0
 20 38  1  0
 20 39  1  0
 20 40  1  0
M  END
>  <Name>  (808) 
5,7-Dimethoxy-8-(3-Methylbutyl)-Coumarin

>  <PubChem ID>  (808) 
90655371

>  <CDB ID>  (808) 
CDB0808

>  <Smiles>  (808) 
CC(C)CCC1=C(C=C(C2=C1OC(=O)C=C2)OC)OC

>  <Chemical class>  (808) 
Simple prenylated coumarins

>  <Natural source>  (808) 
Toddalia asiatica

>  <Molecular Formula>  (808) 
C16H20O4

>  <InChI-Key>  (808) 
APANCZNGWGZFCL-UHFFFAOYSA-N

>  <Total Molweight>  (808) 
276.331

>  <cLogP>  (808) 
3.244

>  <cLogS>  (808) 
-3.609

>  <H-Acceptors>  (808) 
4

>  <H-Donors>  (808) 
0

>  <Rotatable Bonds>  (808) 
5

>  <Polar Surface Area>  (808) 
44.76

$$$$
CDB0809
     RDKit          3D

 48 49  0  0  0  0  0  0  0  0999 V2000
   -3.3977   -4.2989   -0.1134 C   0  0  0  0  0  0  0  0  0  0  0  0
   -1.9210   -4.3356    0.2339 C   0  0  0  0  0  0  0  0  0  0  0  0
   -1.3708   -3.0565   -0.0639 O   0  0  0  0  0  0  0  0  0  0  0  0
    0.0315   -2.8607    0.2171 C   0  0  0  0  0  0  0  0  0  0  0  0
    0.3390   -3.0570    1.7095 C   0  0  0  0  0  0  0  0  0  0  0  0
    0.8907   -3.8272   -0.6197 C   0  0  0  0  0  0  0  0  0  0  0  0
    0.3474   -1.3922   -0.2211 C   0  0  1  0  0  0  0  0  0  0  0  0
    0.0917   -1.2743   -1.6343 O   0  0  0  0  0  0  0  0  0  0  0  0
   -0.5011   -0.3334    0.5142 C   0  0  0  0  0  0  0  0  0  0  0  0
   -0.0243    1.0797    0.2268 C   0  0  0  0  0  0  0  0  0  0  0  0
   -0.6538    1.8699   -0.7478 C   0  0  0  0  0  0  0  0  0  0  0  0
   -1.7623    1.3120   -1.4313 O   0  0  0  0  0  0  0  0  0  0  0  0
   -2.4460    1.9965   -2.4224 C   0  0  0  0  0  0  0  0  0  0  0  0
   -3.4043    1.5161   -3.0166 O   0  0  0  0  0  0  0  0  0  0  0  0
   -1.9724    3.3534   -2.7277 C   0  0  0  0  0  0  0  0  0  0  0  0
   -0.9366    3.9054   -2.0903 C   0  0  0  0  0  0  0  0  0  0  0  0
   -0.2216    3.1632   -1.0538 C   0  0  0  0  0  0  0  0  0  0  0  0
    0.8798    3.6938   -0.3625 C   0  0  0  0  0  0  0  0  0  0  0  0
    1.2519    4.9712   -0.7038 O   0  0  0  0  0  0  0  0  0  0  0  0
    2.3923    5.5264   -0.0618 C   0  0  0  0  0  0  0  0  0  0  0  0
    1.5222    2.9164    0.6127 C   0  0  0  0  0  0  0  0  0  0  0  0
    1.0837    1.6165    0.9059 C   0  0  0  0  0  0  0  0  0  0  0  0
    1.6645    0.7911    1.8363 O   0  0  0  0  0  0  0  0  0  0  0  0
    2.8278    1.2597    2.5055 C   0  0  0  0  0  0  0  0  0  0  0  0
   -3.8720   -5.2617    0.0965 H   0  0  0  0  0  0  0  0  0  0  0  0
   -3.9095   -3.5198    0.4614 H   0  0  0  0  0  0  0  0  0  0  0  0
   -3.5389   -4.0584   -1.1724 H   0  0  0  0  0  0  0  0  0  0  0  0
   -1.4328   -5.1119   -0.3619 H   0  0  0  0  0  0  0  0  0  0  0  0
   -1.8084   -4.5658    1.2970 H   0  0  0  0  0  0  0  0  0  0  0  0
    0.3188   -4.1178    1.9836 H   0  0  0  0  0  0  0  0  0  0  0  0
    1.3323   -2.6737    1.9656 H   0  0  0  0  0  0  0  0  0  0  0  0
   -0.4064   -2.5660    2.3431 H   0  0  0  0  0  0  0  0  0  0  0  0
    0.7954   -4.8592   -0.2648 H   0  0  0  0  0  0  0  0  0  0  0  0
    1.9521   -3.5619   -0.5677 H   0  0  0  0  0  0  0  0  0  0  0  0
    0.5796   -3.8304   -1.6701 H   0  0  0  0  0  0  0  0  0  0  0  0
    1.4158   -1.1925   -0.0767 H   0  0  0  0  0  0  0  0  0  0  0  0
   -0.8282   -1.5838   -1.7536 H   0  0  0  0  0  0  0  0  0  0  0  0
   -0.4738   -0.4830    1.5988 H   0  0  0  0  0  0  0  0  0  0  0  0
   -1.5570   -0.4309    0.2353 H   0  0  0  0  0  0  0  0  0  0  0  0
   -2.5147    3.8818   -3.5015 H   0  0  0  0  0  0  0  0  0  0  0  0
   -0.6075    4.9094   -2.3360 H   0  0  0  0  0  0  0  0  0  0  0  0
    2.2259    5.6309    1.0152 H   0  0  0  0  0  0  0  0  0  0  0  0
    2.5513    6.5284   -0.4718 H   0  0  0  0  0  0  0  0  0  0  0  0
    3.2904    4.9358   -0.2704 H   0  0  0  0  0  0  0  0  0  0  0  0
    2.3695    3.3250    1.1470 H   0  0  0  0  0  0  0  0  0  0  0  0
    3.6365    1.4651    1.7966 H   0  0  0  0  0  0  0  0  0  0  0  0
    3.1686    0.4658    3.1771 H   0  0  0  0  0  0  0  0  0  0  0  0
    2.6022    2.1388    3.1179 H   0  0  0  0  0  0  0  0  0  0  0  0
  1  2  1  0
  2  3  1  0
  3  4  1  0
  4  5  1  0
  4  6  1  0
  4  7  1  0
  7  8  1  0
  7  9  1  0
  9 10  1  0
 10 11  1  0
 11 12  1  0
 12 13  1  0
 13 14  2  0
 13 15  1  0
 15 16  2  0
 16 17  1  0
 17 18  1  0
 18 19  1  0
 19 20  1  0
 18 21  2  0
 21 22  1  0
 22 23  1  0
 23 24  1  0
 22 10  2  0
 17 11  2  0
  1 25  1  0
  1 26  1  0
  1 27  1  0
  2 28  1  0
  2 29  1  0
  5 30  1  0
  5 31  1  0
  5 32  1  0
  6 33  1  0
  6 34  1  0
  6 35  1  0
  7 36  1  6
  8 37  1  0
  9 38  1  0
  9 39  1  0
 15 40  1  0
 16 41  1  0
 20 42  1  0
 20 43  1  0
 20 44  1  0
 21 45  1  0
 24 46  1  0
 24 47  1  0
 24 48  1  0
M  END
>  <Name>  (809) 
8-(3-Ethoxy-2-Hydroxy-3-Methylbutyl)-5,7-Dimethoxycoumarin

>  <PubChem ID>  (809) 
118737347

>  <CDB ID>  (809) 
CDB0809

>  <Smiles>  (809) 
CCOC(C)(C)[C@@H](O)CC1=C2OC(=O)C=CC2=C(OC)C=C1OC

>  <Chemical class>  (809) 
Simple prenylated coumarins

>  <Natural source>  (809) 
Toddalia asiatica

>  <Molecular Formula>  (809) 
C18H24O6

>  <InChI-Key>  (809) 
VLSPUKODWJUOMJ-HNNXBMFYSA-N

>  <Total Molweight>  (809) 
336.383

>  <cLogP>  (809) 
2.1969

>  <cLogS>  (809) 
-3.188

>  <H-Acceptors>  (809) 
6

>  <H-Donors>  (809) 
1

>  <Rotatable Bonds>  (809) 
7

>  <Polar Surface Area>  (809) 
74.22

$$$$
CDB0810
     RDKit          3D

 49 51  0  0  0  0  0  0  0  0999 V2000
   -1.9001    2.4820   -0.2669 C   0  0  0  0  0  0  0  0  0  0  0  0
   -3.0869    1.6117    0.1326 C   0  0  0  0  0  0  0  0  0  0  0  0
   -2.9026    0.1129   -0.1002 C   0  0  0  0  0  0  0  0  0  0  0  0
   -3.3155   -0.0202   -1.5561 C   0  0  0  0  0  0  0  0  0  0  0  0
   -4.3502    0.9378   -1.7671 O   0  0  0  0  0  0  0  0  0  0  0  0
   -4.2621    1.8912   -0.7950 C   0  0  0  0  0  0  0  0  0  0  0  0
   -5.0326    2.8342   -0.6821 O   0  0  0  0  0  0  0  0  0  0  0  0
   -1.5588   -0.3369    0.0454 O   0  0  0  0  0  0  0  0  0  0  0  0
   -1.2541   -1.2472    1.1220 C   0  0  0  0  0  0  0  0  0  0  0  0
   -1.9829   -2.5866    0.8998 C   0  0  0  0  0  0  0  0  0  0  0  0
   -1.6348   -0.6633    2.4914 C   0  0  0  0  0  0  0  0  0  0  0  0
    0.2895   -1.5014    1.0416 C   0  0  0  0  0  0  0  0  0  0  0  0
    1.1245   -0.2161    1.2257 C   0  0  0  0  0  0  0  0  0  0  0  0
    2.4378   -0.2885    0.4720 C   0  0  0  0  0  0  0  0  0  0  0  0
    3.5489   -0.9535    1.0011 C   0  0  0  0  0  0  0  0  0  0  0  0
    4.7583   -1.0160    0.3065 C   0  0  0  0  0  0  0  0  0  0  0  0
    4.8698   -0.4206   -0.9529 C   0  0  0  0  0  0  0  0  0  0  0  0
    3.7704    0.2256   -1.5201 C   0  0  0  0  0  0  0  0  0  0  0  0
    2.5720    0.2796   -0.8044 C   0  0  0  0  0  0  0  0  0  0  0  0
    1.4402    0.9070   -1.3755 O   0  0  0  0  0  0  0  0  0  0  0  0
    1.4706    1.4723   -2.6409 C   0  0  0  0  0  0  0  0  0  0  0  0
    0.4869    1.9962   -3.1506 O   0  0  0  0  0  0  0  0  0  0  0  0
    2.7552    1.4183   -3.3577 C   0  0  0  0  0  0  0  0  0  0  0  0
    3.8401    0.8357   -2.8387 C   0  0  0  0  0  0  0  0  0  0  0  0
    3.4230   -1.5773    2.2120 O   0  0  0  0  0  0  0  0  0  0  0  0
    0.6878   -2.4775    2.0165 O   0  0  0  0  0  0  0  0  0  0  0  0
   -3.4047    1.8815    1.4970 O   0  0  0  0  0  0  0  0  0  0  0  0
   -1.5919    2.3121   -1.3027 H   0  0  0  0  0  0  0  0  0  0  0  0
   -1.0438    2.3067    0.3916 H   0  0  0  0  0  0  0  0  0  0  0  0
   -2.1525    3.5445   -0.1679 H   0  0  0  0  0  0  0  0  0  0  0  0
   -3.6044   -0.4459    0.5289 H   0  0  0  0  0  0  0  0  0  0  0  0
   -3.7004   -1.0237   -1.7645 H   0  0  0  0  0  0  0  0  0  0  0  0
   -2.4940    0.1718   -2.2559 H   0  0  0  0  0  0  0  0  0  0  0  0
   -1.7624   -2.9840   -0.0974 H   0  0  0  0  0  0  0  0  0  0  0  0
   -1.6962   -3.3360    1.6448 H   0  0  0  0  0  0  0  0  0  0  0  0
   -3.0703   -2.4772    0.9555 H   0  0  0  0  0  0  0  0  0  0  0  0
   -1.2353    0.3485    2.6163 H   0  0  0  0  0  0  0  0  0  0  0  0
   -1.2674   -1.2864    3.3133 H   0  0  0  0  0  0  0  0  0  0  0  0
   -2.7207   -0.5850    2.6073 H   0  0  0  0  0  0  0  0  0  0  0  0
    0.5051   -1.9299    0.0535 H   0  0  0  0  0  0  0  0  0  0  0  0
    1.3338   -0.0402    2.2888 H   0  0  0  0  0  0  0  0  0  0  0  0
    0.5771    0.6684    0.8870 H   0  0  0  0  0  0  0  0  0  0  0  0
    5.6182   -1.5340    0.7218 H   0  0  0  0  0  0  0  0  0  0  0  0
    5.8155   -0.4801   -1.4865 H   0  0  0  0  0  0  0  0  0  0  0  0
    2.7673    1.8795   -4.3377 H   0  0  0  0  0  0  0  0  0  0  0  0
    4.7753    0.8066   -3.3871 H   0  0  0  0  0  0  0  0  0  0  0  0
    4.3033   -1.8713    2.5059 H   0  0  0  0  0  0  0  0  0  0  0  0
    1.6582   -2.3986    2.1146 H   0  0  0  0  0  0  0  0  0  0  0  0
   -3.8040    2.7731    1.5154 H   0  0  0  0  0  0  0  0  0  0  0  0
  1  2  1  0
  2  3  1  0
  3  4  1  0
  4  5  1  0
  5  6  1  0
  6  7  2  0
  3  8  1  0
  8  9  1  0
  9 10  1  0
  9 11  1  0
  9 12  1  0
 12 13  1  0
 13 14  1  0
 14 15  2  0
 15 16  1  0
 16 17  2  0
 17 18  1  0
 18 19  2  0
 19 20  1  0
 20 21  1  0
 21 22  2  0
 21 23  1  0
 23 24  2  0
 15 25  1  0
 12 26  1  0
  2 27  1  0
  6  2  1  0
 19 14  1  0
 24 18  1  0
  1 28  1  0
  1 29  1  0
  1 30  1  0
  3 31  1  0
  4 32  1  0
  4 33  1  0
 10 34  1  0
 10 35  1  0
 10 36  1  0
 11 37  1  0
 11 38  1  0
 11 39  1  0
 12 40  1  0
 13 41  1  0
 13 42  1  0
 16 43  1  0
 17 44  1  0
 23 45  1  0
 24 46  1  0
 25 47  1  0
 26 48  1  0
 27 49  1  0
M  END
>  <Name>  (810) 
Integerrimelin

>  <PubChem ID>  (810) 
102584165

>  <CDB ID>  (810) 
CDB0810

>  <Smiles>  (810) 
CC1(C(COC1=O)OC(C)(C)C(CC2=C(C=CC3=C2OC(=O)C=C3)O)O)O

>  <Chemical class>  (810) 
Simple prenylated coumarins

>  <Natural source>  (810) 
Apiaceae and the Rutaceae plant families

>  <Molecular Formula>  (810) 
C19H22O8

>  <InChI-Key>  (810) 
MVDZRRJNPJVSRY-UHFFFAOYSA-N

>  <Total Molweight>  (810) 
378.376

>  <cLogP>  (810) 
0.5143

>  <cLogS>  (810) 
-2.663

>  <H-Acceptors>  (810) 
8

>  <H-Donors>  (810) 
3

>  <Rotatable Bonds>  (810) 
5

>  <Polar Surface Area>  (810) 
122.52

$$$$
CDB0811
     RDKit          3D

 46 47  0  0  0  0  0  0  0  0999 V2000
    3.6746    2.9999   -0.1384 C   0  0  0  0  0  0  0  0  0  0  0  0
    3.0747    1.6259   -0.2933 C   0  0  0  0  0  0  0  0  0  0  0  0
    2.0441    1.2474    0.4883 C   0  0  0  0  0  0  0  0  0  0  0  0
    1.3112   -0.0454    0.4272 C   0  0  0  0  0  0  0  0  0  0  0  0
    1.4055   -0.8780   -0.4582 O   0  0  0  0  0  0  0  0  0  0  0  0
    0.4991   -0.0868    1.5259 O   0  0  0  0  0  0  0  0  0  0  0  0
   -0.2921   -1.2512    1.6095 C   0  0  0  0  0  0  0  0  0  0  0  0
    0.1581   -2.3650    2.2304 C   0  0  0  0  0  0  0  0  0  0  0  0
    1.5254   -2.4445    2.8588 C   0  0  0  0  0  0  0  0  0  0  0  0
   -0.6284   -3.6461    2.3475 C   0  0  0  0  0  0  0  0  0  0  0  0
   -1.7106   -1.1335    1.1276 C   0  0  0  0  0  0  0  0  0  0  0  0
   -2.6770   -1.5954    1.7240 O   0  0  0  0  0  0  0  0  0  0  0  0
   -1.9222   -0.3696   -0.1104 C   0  0  0  0  0  0  0  0  0  0  0  0
   -1.8039   -1.0109   -1.3499 C   0  0  0  0  0  0  0  0  0  0  0  0
   -2.0298   -0.2744   -2.5176 C   0  0  0  0  0  0  0  0  0  0  0  0
   -2.3480    1.0884   -2.4481 C   0  0  0  0  0  0  0  0  0  0  0  0
   -2.4454    1.7286   -1.2107 C   0  0  0  0  0  0  0  0  0  0  0  0
   -2.2309    0.9915   -0.0477 C   0  0  0  0  0  0  0  0  0  0  0  0
   -2.2913    1.6217    1.2138 O   0  0  0  0  0  0  0  0  0  0  0  0
   -2.5625    2.9763    1.3417 C   0  0  0  0  0  0  0  0  0  0  0  0
   -2.5694    3.5487    2.4246 O   0  0  0  0  0  0  0  0  0  0  0  0
   -2.8263    3.7187    0.0977 C   0  0  0  0  0  0  0  0  0  0  0  0
   -2.7697    3.1420   -1.1062 C   0  0  0  0  0  0  0  0  0  0  0  0
   -1.5077   -2.3474   -1.3418 O   0  0  0  0  0  0  0  0  0  0  0  0
   -0.7496   -2.8191   -2.4511 C   0  0  0  0  0  0  0  0  0  0  0  0
    3.7339    0.7856   -1.3530 C   0  0  0  0  0  0  0  0  0  0  0  0
    3.1602    3.5960    0.6228 H   0  0  0  0  0  0  0  0  0  0  0  0
    4.7271    2.9247    0.1539 H   0  0  0  0  0  0  0  0  0  0  0  0
    3.6136    3.5475   -1.0848 H   0  0  0  0  0  0  0  0  0  0  0  0
    1.6650    1.9348    1.2410 H   0  0  0  0  0  0  0  0  0  0  0  0
    2.0597   -1.4901    2.8530 H   0  0  0  0  0  0  0  0  0  0  0  0
    1.4397   -2.7581    3.9048 H   0  0  0  0  0  0  0  0  0  0  0  0
    2.1435   -3.1756    2.3274 H   0  0  0  0  0  0  0  0  0  0  0  0
   -1.0437   -3.7436    3.3554 H   0  0  0  0  0  0  0  0  0  0  0  0
    0.0234   -4.5072    2.1612 H   0  0  0  0  0  0  0  0  0  0  0  0
   -1.4417   -3.7229    1.6214 H   0  0  0  0  0  0  0  0  0  0  0  0
   -1.9818   -0.7437   -3.4960 H   0  0  0  0  0  0  0  0  0  0  0  0
   -2.5213    1.6363   -3.3721 H   0  0  0  0  0  0  0  0  0  0  0  0
   -3.0646    4.7686    0.2183 H   0  0  0  0  0  0  0  0  0  0  0  0
   -2.9657    3.7104   -2.0090 H   0  0  0  0  0  0  0  0  0  0  0  0
   -0.3324   -3.7935   -2.1797 H   0  0  0  0  0  0  0  0  0  0  0  0
   -1.3946   -2.9631   -3.3234 H   0  0  0  0  0  0  0  0  0  0  0  0
    0.0857   -2.1513   -2.6887 H   0  0  0  0  0  0  0  0  0  0  0  0
    4.8233    0.8860   -1.2890 H   0  0  0  0  0  0  0  0  0  0  0  0
    3.4188    1.1185   -2.3470 H   0  0  0  0  0  0  0  0  0  0  0  0
    3.5240   -0.2810   -1.2602 H   0  0  0  0  0  0  0  0  0  0  0  0
  1  2  1  0
  2  3  2  3
  3  4  1  0
  4  5  2  0
  4  6  1  0
  6  7  1  0
  7  8  2  3
  8  9  1  0
  8 10  1  0
  7 11  1  0
 11 12  2  0
 11 13  1  0
 13 14  2  0
 14 15  1  0
 15 16  2  0
 16 17  1  0
 17 18  2  0
 18 19  1  0
 19 20  1  0
 20 21  2  0
 20 22  1  0
 22 23  2  0
 14 24  1  0
 24 25  1  0
  2 26  1  0
 18 13  1  0
 23 17  1  0
  1 27  1  0
  1 28  1  0
  1 29  1  0
  3 30  1  0
  9 31  1  0
  9 32  1  0
  9 33  1  0
 10 34  1  0
 10 35  1  0
 10 36  1  0
 15 37  1  0
 16 38  1  0
 22 39  1  0
 23 40  1  0
 25 41  1  0
 25 42  1  0
 25 43  1  0
 26 44  1  0
 26 45  1  0
 26 46  1  0
M  END
>  <Name>  (811) 
Kimcuongin

>  <PubChem ID>  (811) 
102141971

>  <CDB ID>  (811) 
CDB0811

>  <Smiles>  (811) 
CC(=CC(=O)OC(=C(C)C)C(=O)C1=C(C=CC2=C1OC(=O)C=C2)OC)C

>  <Chemical class>  (811) 
Simple prenylated coumarins

>  <Natural source>  (811) 
Murraya paniculata

>  <Molecular Formula>  (811) 
C20H20O6

>  <InChI-Key>  (811) 
VALIYXXMXXVKDP-UHFFFAOYSA-N

>  <Total Molweight>  (811) 
356.373

>  <cLogP>  (811) 
4.1425

>  <cLogS>  (811) 
-4.285

>  <H-Acceptors>  (811) 
6

>  <H-Donors>  (811) 
0

>  <Rotatable Bonds>  (811) 
6

>  <Polar Surface Area>  (811) 
78.9

$$$$
CDB0812
     RDKit          3D

 38 39  0  0  0  0  0  0  0  0999 V2000
    0.7939    3.9840   -0.6305 C   0  0  0  0  0  0  0  0  0  0  0  0
    0.3564    2.6781   -0.2714 O   0  0  0  0  0  0  0  0  0  0  0  0
    1.2854    1.6704   -0.3040 C   0  0  0  0  0  0  0  0  0  0  0  0
    0.8709    0.4404    0.2398 C   0  0  0  0  0  0  0  0  0  0  0  0
   -0.5003    0.2761    0.8760 C   0  0  0  0  0  0  0  0  0  0  0  0
   -1.5619   -0.1655   -0.1529 C   0  0  2  0  0  0  0  0  0  0  0  0
   -1.9865    0.9504   -0.9479 O   0  0  0  0  0  0  0  0  0  0  0  0
   -2.8026   -0.8364    0.5074 C   0  0  0  0  0  0  0  0  0  0  0  0
   -3.5385    0.1135    1.4585 C   0  0  0  0  0  0  0  0  0  0  0  0
   -3.7827   -1.3340   -0.5632 C   0  0  0  0  0  0  0  0  0  0  0  0
   -2.3937   -1.9720    1.2820 O   0  0  0  0  0  0  0  0  0  0  0  0
    1.7502   -0.6528    0.1558 C   0  0  0  0  0  0  0  0  0  0  0  0
    3.0216   -0.5425   -0.4063 C   0  0  0  0  0  0  0  0  0  0  0  0
    3.8855   -1.7111   -0.4546 C   0  0  0  0  0  0  0  0  0  0  0  0
    3.4409   -2.8821    0.0105 C   0  0  0  0  0  0  0  0  0  0  0  0
    2.0915   -3.0431    0.5758 C   0  0  0  0  0  0  0  0  0  0  0  0
    1.6966   -4.1378    0.9585 O   0  0  0  0  0  0  0  0  0  0  0  0
    1.3029   -1.9037    0.6419 O   0  0  0  0  0  0  0  0  0  0  0  0
    3.4276    0.6896   -0.9133 C   0  0  0  0  0  0  0  0  0  0  0  0
    2.5609    1.7878   -0.8703 C   0  0  0  0  0  0  0  0  0  0  0  0
    1.6370    4.3060   -0.0103 H   0  0  0  0  0  0  0  0  0  0  0  0
   -0.0356    4.6745   -0.4501 H   0  0  0  0  0  0  0  0  0  0  0  0
    1.0422    4.0334   -1.6955 H   0  0  0  0  0  0  0  0  0  0  0  0
   -0.7947    1.2199    1.3513 H   0  0  0  0  0  0  0  0  0  0  0  0
   -0.4157   -0.4487    1.6939 H   0  0  0  0  0  0  0  0  0  0  0  0
   -1.1086   -0.8930   -0.8387 H   0  0  0  0  0  0  0  0  0  0  0  0
   -1.2300    1.5621   -1.0270 H   0  0  0  0  0  0  0  0  0  0  0  0
   -2.9000    0.4099    2.2976 H   0  0  0  0  0  0  0  0  0  0  0  0
   -3.8860    1.0168    0.9475 H   0  0  0  0  0  0  0  0  0  0  0  0
   -4.4081   -0.3834    1.9049 H   0  0  0  0  0  0  0  0  0  0  0  0
   -3.2895   -2.0357   -1.2454 H   0  0  0  0  0  0  0  0  0  0  0  0
   -4.1980   -0.5113   -1.1540 H   0  0  0  0  0  0  0  0  0  0  0  0
   -4.6133   -1.8835   -0.1052 H   0  0  0  0  0  0  0  0  0  0  0  0
   -1.9742   -2.6148    0.6831 H   0  0  0  0  0  0  0  0  0  0  0  0
    4.8826   -1.6167   -0.8706 H   0  0  0  0  0  0  0  0  0  0  0  0
    4.0524   -3.7759   -0.0112 H   0  0  0  0  0  0  0  0  0  0  0  0
    4.4117    0.8098   -1.3606 H   0  0  0  0  0  0  0  0  0  0  0  0
    2.9098    2.7210   -1.3017 H   0  0  0  0  0  0  0  0  0  0  0  0
  1  2  1  0
  2  3  1  0
  3  4  2  0
  4  5  1  0
  5  6  1  0
  6  7  1  0
  6  8  1  0
  8  9  1  0
  8 10  1  0
  8 11  1  0
  4 12  1  0
 12 13  2  0
 13 14  1  0
 14 15  2  0
 15 16  1  0
 16 17  2  0
 16 18  1  0
 13 19  1  0
 19 20  2  0
 20  3  1  0
 18 12  1  0
  1 21  1  0
  1 22  1  0
  1 23  1  0
  5 24  1  0
  5 25  1  0
  6 26  1  6
  7 27  1  0
  9 28  1  0
  9 29  1  0
  9 30  1  0
 10 31  1  0
 10 32  1  0
 10 33  1  0
 11 34  1  0
 14 35  1  0
 15 36  1  0
 19 37  1  0
 20 38  1  0
M  END
>  <Name>  (812) 
Meranzin Hydrate

>  <PubChem ID>  (812) 
5070783

>  <CDB ID>  (812) 
CDB0812

>  <Smiles>  (812) 
COC1=C(C[C@H](O)C(C)(C)O)C2=C(C=CC(=O)O2)C=C1

>  <Chemical class>  (812) 
Simple prenylated coumarins

>  <Natural source>  (812) 
Cnidium monnieri

>  <Molecular Formula>  (812) 
C15H18O5

>  <InChI-Key>  (812) 
KGGUASRIGLRPAX-LBPRGKRZSA-N

>  <Total Molweight>  (812) 
278.303

>  <cLogP>  (812) 
1.4327

>  <cLogS>  (812) 
-2.742

>  <H-Acceptors>  (812) 
5

>  <H-Donors>  (812) 
2

>  <Rotatable Bonds>  (812) 
4

>  <Polar Surface Area>  (812) 
75.99

$$$$
CDB0813
     RDKit          3D

 31 33  0  0  0  0  0  0  0  0999 V2000
   -1.7399   -2.2947   -1.0475 C   0  0  0  0  0  0  0  0  0  0  0  0
   -2.0170   -1.5638    0.2123 C   0  0  0  0  0  0  0  0  0  0  0  0
   -3.0245   -1.8378    1.1161 C   0  0  0  0  0  0  0  0  0  0  0  0
   -2.9934   -0.9716    2.1588 O   0  0  0  0  0  0  0  0  0  0  0  0
   -1.9550   -0.1275    1.9361 C   0  0  0  0  0  0  0  0  0  0  0  0
   -1.3151   -0.4421    0.7553 C   0  0  0  0  0  0  0  0  0  0  0  0
   -0.1486    0.2801    0.2658 C   0  0  0  0  0  0  0  0  0  0  0  0
   -0.2216    1.6512   -0.0626 C   0  0  0  0  0  0  0  0  0  0  0  0
    0.9249    2.3099   -0.5291 C   0  0  0  0  0  0  0  0  0  0  0  0
    2.1363    1.6244   -0.6761 C   0  0  0  0  0  0  0  0  0  0  0  0
    2.2196    0.2705   -0.3578 C   0  0  0  0  0  0  0  0  0  0  0  0
    1.0798   -0.3861    0.1085 C   0  0  0  0  0  0  0  0  0  0  0  0
    1.1585   -1.7601    0.4471 O   0  0  0  0  0  0  0  0  0  0  0  0
    2.3268   -2.4927    0.3088 C   0  0  0  0  0  0  0  0  0  0  0  0
    2.3940   -3.6872    0.5729 O   0  0  0  0  0  0  0  0  0  0  0  0
    3.5070   -1.7640   -0.1828 C   0  0  0  0  0  0  0  0  0  0  0  0
    3.4656   -0.4665   -0.4982 C   0  0  0  0  0  0  0  0  0  0  0  0
   -1.4419    2.2596    0.0937 O   0  0  0  0  0  0  0  0  0  0  0  0
   -1.5605    3.6264   -0.2756 C   0  0  0  0  0  0  0  0  0  0  0  0
   -1.0193   -3.0992   -0.8709 H   0  0  0  0  0  0  0  0  0  0  0  0
   -1.3317   -1.6254   -1.8113 H   0  0  0  0  0  0  0  0  0  0  0  0
   -2.6554   -2.7397   -1.4511 H   0  0  0  0  0  0  0  0  0  0  0  0
   -3.8079   -2.5818    1.1552 H   0  0  0  0  0  0  0  0  0  0  0  0
   -1.8001    0.6294    2.6920 H   0  0  0  0  0  0  0  0  0  0  0  0
    0.9103    3.3636   -0.7901 H   0  0  0  0  0  0  0  0  0  0  0  0
    3.0075    2.1643   -1.0405 H   0  0  0  0  0  0  0  0  0  0  0  0
    4.4154   -2.3468   -0.2749 H   0  0  0  0  0  0  0  0  0  0  0  0
    4.3492    0.0489   -0.8587 H   0  0  0  0  0  0  0  0  0  0  0  0
   -2.5976    3.9302   -0.1036 H   0  0  0  0  0  0  0  0  0  0  0  0
   -1.3446    3.7688   -1.3396 H   0  0  0  0  0  0  0  0  0  0  0  0
   -0.9211    4.2597    0.3478 H   0  0  0  0  0  0  0  0  0  0  0  0
  1  2  1  0
  2  3  2  0
  3  4  1  0
  4  5  1  0
  5  6  2  0
  6  7  1  0
  7  8  2  0
  8  9  1  0
  9 10  2  0
 10 11  1  0
 11 12  2  0
 12 13  1  0
 13 14  1  0
 14 15  2  0
 14 16  1  0
 16 17  2  0
  8 18  1  0
 18 19  1  0
  6  2  1  0
 12  7  1  0
 17 11  1  0
  1 20  1  0
  1 21  1  0
  1 22  1  0
  3 23  1  0
  5 24  1  0
  9 25  1  0
 10 26  1  0
 16 27  1  0
 17 28  1  0
 19 29  1  0
 19 30  1  0
 19 31  1  0
M  END
>  <Name>  (813) 
7-Methoxy-8-(4-Methyl-3-Furanyl-Coumarin

>  <PubChem ID>  (813) 
46831977

>  <CDB ID>  (813) 
CDB0813

>  <Smiles>  (813) 
CC1=COC=C1C2=C(C=CC3=C2OC(=O)C=C3)OC

>  <Chemical class>  (813) 
Simple prenylated coumarins

>  <Natural source>  (813) 
Micromelum minutum

>  <Molecular Formula>  (813) 
C15H12O4

>  <InChI-Key>  (813) 
INZNSTVWSRDWLF-UHFFFAOYSA-N

>  <Total Molweight>  (813) 
256.256

>  <cLogP>  (813) 
2.5652

>  <cLogS>  (813) 
-4.476

>  <H-Acceptors>  (813) 
4

>  <H-Donors>  (813) 
0

>  <Rotatable Bonds>  (813) 
2

>  <Polar Surface Area>  (813) 
48.67

$$$$
CDB0814
     RDKit          3D

 33 35  0  0  0  0  0  0  0  0999 V2000
    1.8242   -1.2290    1.8253 C   0  0  0  0  0  0  0  0  0  0  0  0
    2.0361   -0.7371    0.4372 C   0  0  0  0  0  0  0  0  0  0  0  0
    1.1895   -0.0816   -0.3620 C   0  0  0  0  0  0  0  0  0  0  0  0
    1.9240    0.1768   -1.6127 C   0  0  0  0  0  0  0  0  0  0  0  0
    1.4788    0.7345   -2.6016 O   0  0  0  0  0  0  0  0  0  0  0  0
    3.1809   -0.3350   -1.5157 O   0  0  0  0  0  0  0  0  0  0  0  0
    3.3248   -0.9522   -0.2504 C   0  0  0  0  0  0  0  0  0  0  0  0
    4.3601   -0.3299    0.4779 O   0  0  0  0  0  0  0  0  0  0  0  0
   -0.1873    0.3349   -0.1114 C   0  0  0  0  0  0  0  0  0  0  0  0
   -0.5232    1.6944   -0.0255 C   0  0  0  0  0  0  0  0  0  0  0  0
   -1.8425    2.0906    0.2246 C   0  0  0  0  0  0  0  0  0  0  0  0
   -2.8523    1.1337    0.3546 C   0  0  0  0  0  0  0  0  0  0  0  0
   -2.5454   -0.2234    0.2483 C   0  0  0  0  0  0  0  0  0  0  0  0
   -1.2209   -0.6052    0.0193 C   0  0  0  0  0  0  0  0  0  0  0  0
   -0.8957   -1.9793   -0.0926 O   0  0  0  0  0  0  0  0  0  0  0  0
   -1.8516   -2.9755    0.0357 C   0  0  0  0  0  0  0  0  0  0  0  0
   -1.5721   -4.1660   -0.0386 O   0  0  0  0  0  0  0  0  0  0  0  0
   -3.2362   -2.5370    0.2729 C   0  0  0  0  0  0  0  0  0  0  0  0
   -3.5708   -1.2474    0.3745 C   0  0  0  0  0  0  0  0  0  0  0  0
    0.4796    2.6283   -0.1068 O   0  0  0  0  0  0  0  0  0  0  0  0
    0.2699    3.5473   -1.1802 C   0  0  0  0  0  0  0  0  0  0  0  0
    1.9328   -2.3176    1.8616 H   0  0  0  0  0  0  0  0  0  0  0  0
    0.8307   -0.9795    2.2091 H   0  0  0  0  0  0  0  0  0  0  0  0
    2.5578   -0.7858    2.5061 H   0  0  0  0  0  0  0  0  0  0  0  0
    3.5455   -2.0173   -0.3792 H   0  0  0  0  0  0  0  0  0  0  0  0
    5.1778   -0.5707    0.0127 H   0  0  0  0  0  0  0  0  0  0  0  0
   -2.0884    3.1432    0.3362 H   0  0  0  0  0  0  0  0  0  0  0  0
   -3.8714    1.4621    0.5448 H   0  0  0  0  0  0  0  0  0  0  0  0
   -3.9720   -3.3271    0.3617 H   0  0  0  0  0  0  0  0  0  0  0  0
   -4.5987   -0.9487    0.5495 H   0  0  0  0  0  0  0  0  0  0  0  0
   -0.0981    3.0491   -2.0843 H   0  0  0  0  0  0  0  0  0  0  0  0
    1.2330    4.0095   -1.4167 H   0  0  0  0  0  0  0  0  0  0  0  0
   -0.4190    4.3408   -0.8741 H   0  0  0  0  0  0  0  0  0  0  0  0
  1  2  1  0
  2  3  2  0
  3  4  1  0
  4  5  2  0
  4  6  1  0
  6  7  1  0
  7  8  1  0
  3  9  1  0
  9 10  2  0
 10 11  1  0
 11 12  2  0
 12 13  1  0
 13 14  2  0
 14 15  1  0
 15 16  1  0
 16 17  2  0
 16 18  1  0
 18 19  2  0
 10 20  1  0
 20 21  1  0
  7  2  1  0
 14  9  1  0
 19 13  1  0
  1 22  1  0
  1 23  1  0
  1 24  1  0
  7 25  1  0
  8 26  1  0
 11 27  1  0
 12 28  1  0
 18 29  1  0
 19 30  1  0
 21 31  1  0
 21 32  1  0
 21 33  1  0
M  END
>  <Name>  (814) 
Microcoumaririn

>  <PubChem ID>  (814) 
101897656

>  <CDB ID>  (814) 
CDB0814

>  <Smiles>  (814) 
CC1=C(C(=O)OC1O)C2=C(C=CC3=C2OC(=O)C=C3)OC

>  <Chemical class>  (814) 
Simple prenylated coumarins

>  <Natural source>  (814) 
Micromelum falcatum

>  <Molecular Formula>  (814) 
C15H12O6

>  <InChI-Key>  (814) 
DMHGVTAPWZJYJY-CQSZACIVSA-N

>  <Total Molweight>  (814) 
288.254

>  <cLogP>  (814) 
0.8171

>  <cLogS>  (814) 
-2.412

>  <H-Acceptors>  (814) 
6

>  <H-Donors>  (814) 
1

>  <Rotatable Bonds>  (814) 
2

>  <Polar Surface Area>  (814) 
82.06

$$$$
CDB0815
     RDKit          3D

 37 38  0  0  0  0  0  0  0  0999 V2000
    1.0145    3.8281    0.2605 C   0  0  0  0  0  0  0  0  0  0  0  0
    0.5057    2.5064    0.3923 O   0  0  0  0  0  0  0  0  0  0  0  0
    1.3442    1.4680    0.0716 C   0  0  0  0  0  0  0  0  0  0  0  0
    0.8790    0.1745    0.3967 C   0  0  0  0  0  0  0  0  0  0  0  0
    1.6771   -0.9229    0.0199 C   0  0  0  0  0  0  0  0  0  0  0  0
    2.9090   -0.7629   -0.6196 C   0  0  0  0  0  0  0  0  0  0  0  0
    3.3602    0.5225   -0.9073 C   0  0  0  0  0  0  0  0  0  0  0  0
    2.5791    1.6313   -0.5702 C   0  0  0  0  0  0  0  0  0  0  0  0
    3.6924   -1.9349   -0.9790 C   0  0  0  0  0  0  0  0  0  0  0  0
    3.2230   -3.1554   -0.7072 C   0  0  0  0  0  0  0  0  0  0  0  0
    1.9247   -3.3692   -0.0489 C   0  0  0  0  0  0  0  0  0  0  0  0
    1.5219   -4.5029    0.1846 O   0  0  0  0  0  0  0  0  0  0  0  0
    1.2052   -2.2325    0.2840 O   0  0  0  0  0  0  0  0  0  0  0  0
   -0.4721    0.0127    1.0848 C   0  0  0  0  0  0  0  0  0  0  0  0
   -1.6353   -0.1234    0.0550 C   0  0  0  0  0  0  0  0  0  0  0  0
   -3.0518    0.1412    0.5571 C   0  0  0  0  0  0  0  0  0  0  0  0
   -3.4101    0.1948    1.8533 C   0  0  0  0  0  0  0  0  0  0  0  0
   -4.0753    0.3640   -0.5241 C   0  0  0  0  0  0  0  0  0  0  0  0
   -4.0840   -0.7764   -1.3753 O   0  0  0  0  0  0  0  0  0  0  0  0
   -1.6127   -1.4575   -0.4817 O   0  0  0  0  0  0  0  0  0  0  0  0
   -0.4551   -1.1032    1.9872 O   0  0  0  0  0  0  0  0  0  0  0  0
    1.1805    4.0802   -0.7917 H   0  0  0  0  0  0  0  0  0  0  0  0
    1.9264    3.9648    0.8512 H   0  0  0  0  0  0  0  0  0  0  0  0
    0.2589    4.5165    0.6514 H   0  0  0  0  0  0  0  0  0  0  0  0
    4.3137    0.6785   -1.4062 H   0  0  0  0  0  0  0  0  0  0  0  0
    2.9605    2.6124   -0.8345 H   0  0  0  0  0  0  0  0  0  0  0  0
    4.6522   -1.8020   -1.4657 H   0  0  0  0  0  0  0  0  0  0  0  0
    3.7761   -4.0515   -0.9591 H   0  0  0  0  0  0  0  0  0  0  0  0
   -0.6386    0.8897    1.7201 H   0  0  0  0  0  0  0  0  0  0  0  0
   -1.4460    0.5696   -0.7751 H   0  0  0  0  0  0  0  0  0  0  0  0
   -2.7017    0.0216    2.6587 H   0  0  0  0  0  0  0  0  0  0  0  0
   -4.4359    0.3838    2.1553 H   0  0  0  0  0  0  0  0  0  0  0  0
   -3.8204    1.2468   -1.1191 H   0  0  0  0  0  0  0  0  0  0  0  0
   -5.0829    0.4983   -0.1166 H   0  0  0  0  0  0  0  0  0  0  0  0
   -4.8487   -0.6706   -1.9683 H   0  0  0  0  0  0  0  0  0  0  0  0
   -2.4691   -1.5712   -0.9466 H   0  0  0  0  0  0  0  0  0  0  0  0
   -0.6647   -1.8692    1.4124 H   0  0  0  0  0  0  0  0  0  0  0  0
  1  2  1  0
  2  3  1  0
  3  4  2  0
  4  5  1  0
  5  6  2  0
  6  7  1  0
  7  8  2  0
  6  9  1  0
  9 10  2  0
 10 11  1  0
 11 12  2  0
 11 13  1  0
  4 14  1  0
 14 15  1  0
 15 16  1  0
 16 17  2  0
 16 18  1  0
 18 19  1  0
 15 20  1  0
 14 21  1  0
  8  3  1  0
 13  5  1  0
  1 22  1  0
  1 23  1  0
  1 24  1  0
  7 25  1  0
  8 26  1  0
  9 27  1  0
 10 28  1  0
 14 29  1  0
 15 30  1  0
 17 31  1  0
 17 32  1  0
 18 33  1  0
 18 34  1  0
 19 35  1  0
 20 36  1  0
 21 37  1  0
M  END
>  <Name>  (815) 
Microfalcrin)

>  <PubChem ID>  (815) 
101897655

>  <CDB ID>  (815) 
CDB0815

>  <Smiles>  (815) 
COC1=C(C2=C(C=C1)C=CC(=O)O2)C(C(C(=C)CO)O)O

>  <Chemical class>  (815) 
Simple prenylated coumarins

>  <Natural source>  (815) 
Micromelum falcatum

>  <Molecular Formula>  (815) 
C15H16O6

>  <InChI-Key>  (815) 
RRULFOJZMACTIZ-UHFFFAOYSA-N

>  <Total Molweight>  (815) 
292.286

>  <cLogP>  (815) 
0.498

>  <cLogS>  (815) 
-2.04

>  <H-Acceptors>  (815) 
6

>  <H-Donors>  (815) 
3

>  <Rotatable Bonds>  (815) 
5

>  <Polar Surface Area>  (815) 
96.22

$$$$
CDB0816
     RDKit          3D

 48 50  0  0  0  0  0  0  0  0999 V2000
    5.9151   -1.1118    0.9110 C   0  0  0  0  0  0  0  0  0  0  0  0
    5.5755   -1.1708   -0.5805 C   0  0  0  0  0  0  0  0  0  0  0  0
    6.7707   -0.6855   -1.4028 C   0  0  0  0  0  0  0  0  0  0  0  0
    4.3341   -0.3266   -0.9075 C   0  0  0  0  0  0  0  0  0  0  0  0
    3.0519   -0.9256   -0.3727 C   0  0  0  0  0  0  0  0  0  0  0  0
    2.8970   -2.0935   -0.0474 O   0  0  0  0  0  0  0  0  0  0  0  0
    2.0844    0.0316   -0.3405 O   0  0  0  0  0  0  0  0  0  0  0  0
    0.8124   -0.4342    0.1274 C   0  0  0  0  0  0  0  0  0  0  0  0
   -0.0577    0.7783    0.3920 C   0  0  0  0  0  0  0  0  0  0  0  0
   -0.3712    1.1189    1.6565 C   0  0  0  0  0  0  0  0  0  0  0  0
   -0.4895    1.5364   -0.8066 C   0  0  0  0  0  0  0  0  0  0  0  0
   -1.9389    1.5698   -1.2775 C   0  0  0  0  0  0  0  0  0  0  0  0
   -1.2843    2.7243   -0.7163 O   0  0  0  0  0  0  0  0  0  0  0  0
   -3.0877    0.9648   -0.4987 C   0  0  0  0  0  0  0  0  0  0  0  0
   -4.0914    1.7462    0.1046 C   0  0  0  0  0  0  0  0  0  0  0  0
   -5.1605    1.1698    0.8045 C   0  0  0  0  0  0  0  0  0  0  0  0
   -5.2492   -0.2154    0.9344 C   0  0  0  0  0  0  0  0  0  0  0  0
   -4.2884   -1.0266    0.3359 C   0  0  0  0  0  0  0  0  0  0  0  0
   -3.2411   -0.4292   -0.3741 C   0  0  0  0  0  0  0  0  0  0  0  0
   -2.2887   -1.2470   -1.0325 O   0  0  0  0  0  0  0  0  0  0  0  0
   -2.3445   -2.6317   -0.9830 C   0  0  0  0  0  0  0  0  0  0  0  0
   -1.5232   -3.3396   -1.5526 O   0  0  0  0  0  0  0  0  0  0  0  0
   -3.4425   -3.2231   -0.2031 C   0  0  0  0  0  0  0  0  0  0  0  0
   -4.3598   -2.4770    0.4187 C   0  0  0  0  0  0  0  0  0  0  0  0
   -4.0747    3.1056   -0.0924 O   0  0  0  0  0  0  0  0  0  0  0  0
   -3.8608    3.8095    1.1301 C   0  0  0  0  0  0  0  0  0  0  0  0
    6.1217   -0.0848    1.2313 H   0  0  0  0  0  0  0  0  0  0  0  0
    5.0936   -1.4975    1.5227 H   0  0  0  0  0  0  0  0  0  0  0  0
    6.8013   -1.7172    1.1298 H   0  0  0  0  0  0  0  0  0  0  0  0
    5.3857   -2.2181   -0.8473 H   0  0  0  0  0  0  0  0  0  0  0  0
    7.0100    0.3597   -1.1786 H   0  0  0  0  0  0  0  0  0  0  0  0
    6.5624   -0.7634   -2.4751 H   0  0  0  0  0  0  0  0  0  0  0  0
    7.6595   -1.2897   -1.1917 H   0  0  0  0  0  0  0  0  0  0  0  0
    4.2127   -0.2397   -1.9937 H   0  0  0  0  0  0  0  0  0  0  0  0
    4.4545    0.6817   -0.4934 H   0  0  0  0  0  0  0  0  0  0  0  0
    0.3586   -1.0639   -0.6449 H   0  0  0  0  0  0  0  0  0  0  0  0
    0.9356   -1.0303    1.0402 H   0  0  0  0  0  0  0  0  0  0  0  0
   -0.0242    0.5457    2.5099 H   0  0  0  0  0  0  0  0  0  0  0  0
   -0.9773    1.9953    1.8625 H   0  0  0  0  0  0  0  0  0  0  0  0
    0.2643    1.5489   -1.5901 H   0  0  0  0  0  0  0  0  0  0  0  0
   -2.0854    1.5915   -2.3542 H   0  0  0  0  0  0  0  0  0  0  0  0
   -5.9398    1.7986    1.2268 H   0  0  0  0  0  0  0  0  0  0  0  0
   -6.0849   -0.6460    1.4803 H   0  0  0  0  0  0  0  0  0  0  0  0
   -3.4643   -4.3055   -0.1657 H   0  0  0  0  0  0  0  0  0  0  0  0
   -5.1627   -2.9360    0.9854 H   0  0  0  0  0  0  0  0  0  0  0  0
   -4.7853    3.8591    1.7141 H   0  0  0  0  0  0  0  0  0  0  0  0
   -3.0577    3.3615    1.7253 H   0  0  0  0  0  0  0  0  0  0  0  0
   -3.5653    4.8328    0.8796 H   0  0  0  0  0  0  0  0  0  0  0  0
  1  2  1  0
  2  3  1  0
  2  4  1  0
  4  5  1  0
  5  6  2  0
  5  7  1  0
  7  8  1  0
  8  9  1  0
  9 10  2  0
  9 11  1  0
 11 12  1  0
 12 13  1  0
 12 14  1  0
 14 15  2  0
 15 16  1  0
 16 17  2  0
 17 18  1  0
 18 19  2  0
 19 20  1  0
 20 21  1  0
 21 22  2  0
 21 23  1  0
 23 24  2  0
 15 25  1  0
 25 26  1  0
 13 11  1  0
 19 14  1  0
 24 18  1  0
  1 27  1  0
  1 28  1  0
  1 29  1  0
  2 30  1  0
  3 31  1  0
  3 32  1  0
  3 33  1  0
  4 34  1  0
  4 35  1  0
  8 36  1  0
  8 37  1  0
 10 38  1  0
 10 39  1  0
 11 40  1  0
 12 41  1  0
 16 42  1  0
 17 43  1  0
 23 44  1  0
 24 45  1  0
 26 46  1  0
 26 47  1  0
 26 48  1  0
M  END
>  <Name>  (816) 
Micromarin A

>  <PubChem ID>  (816) 
10522365

>  <CDB ID>  (816) 
CDB0816

>  <Smiles>  (816) 
CC(C)CC(=O)OCC(=C)C1C(O1)C2=C(C=CC3=C2OC(=O)C=C3)OC

>  <Chemical class>  (816) 
Simple prenylated coumarins

>  <Natural source>  (816) 
Micromelum falcatum

>  <Molecular Formula>  (816) 
C20H22O6

>  <InChI-Key>  (816) 
MRAPDOUDLFGIQM-UHFFFAOYSA-N

>  <Total Molweight>  (816) 
358.389

>  <cLogP>  (816) 
3.031

>  <cLogS>  (816) 
-3.631

>  <H-Acceptors>  (816) 
6

>  <H-Donors>  (816) 
0

>  <Rotatable Bonds>  (816) 
8

>  <Polar Surface Area>  (816) 
74.36

$$$$
CDB0817
     RDKit          3D

 51 52  0  0  0  0  0  0  0  0999 V2000
    4.9199    3.7089   -0.6494 C   0  0  0  0  0  0  0  0  0  0  0  0
    4.6107    2.4620    0.1800 C   0  0  0  0  0  0  0  0  0  0  0  0
    4.1432    2.8695    1.5791 C   0  0  0  0  0  0  0  0  0  0  0  0
    3.5625    1.6022   -0.5347 C   0  0  0  0  0  0  0  0  0  0  0  0
    3.4357    0.2379    0.0970 C   0  0  0  0  0  0  0  0  0  0  0  0
    4.2819   -0.6413    0.0129 O   0  0  0  0  0  0  0  0  0  0  0  0
    2.2671    0.1444    0.7899 O   0  0  0  0  0  0  0  0  0  0  0  0
    2.0493   -1.1465    1.3710 C   0  0  0  0  0  0  0  0  0  0  0  0
    0.7351   -1.1165    2.1178 C   0  0  0  0  0  0  0  0  0  0  0  0
    0.6728   -1.4608    3.4182 C   0  0  0  0  0  0  0  0  0  0  0  0
   -0.5175   -0.6952    1.3589 C   0  0  0  0  0  0  0  0  0  0  0  0
   -0.7673   -1.4814    0.0353 C   0  0  0  0  0  0  0  0  0  0  0  0
   -2.2192   -1.3666   -0.4176 C   0  0  0  0  0  0  0  0  0  0  0  0
   -3.1644   -2.3202    0.0188 C   0  0  0  0  0  0  0  0  0  0  0  0
   -4.5048   -2.2131   -0.3763 C   0  0  0  0  0  0  0  0  0  0  0  0
   -4.9283   -1.1579   -1.1899 C   0  0  0  0  0  0  0  0  0  0  0  0
   -4.0186   -0.1916   -1.6099 C   0  0  0  0  0  0  0  0  0  0  0  0
   -2.6832   -0.3050   -1.2177 C   0  0  0  0  0  0  0  0  0  0  0  0
   -1.7581    0.6875   -1.6255 O   0  0  0  0  0  0  0  0  0  0  0  0
   -2.1243    1.7740   -2.4061 C   0  0  0  0  0  0  0  0  0  0  0  0
   -1.3187    2.6270   -2.7589 O   0  0  0  0  0  0  0  0  0  0  0  0
   -3.5377    1.8521   -2.8050 C   0  0  0  0  0  0  0  0  0  0  0  0
   -4.4331    0.9316   -2.4366 C   0  0  0  0  0  0  0  0  0  0  0  0
   -2.6845   -3.3021    0.8480 O   0  0  0  0  0  0  0  0  0  0  0  0
   -3.5782   -4.3401    1.2319 C   0  0  0  0  0  0  0  0  0  0  0  0
    0.1343   -1.0462   -0.9940 O   0  0  0  0  0  0  0  0  0  0  0  0
   -0.4378    0.7132    1.0933 O   0  0  0  0  0  0  0  0  0  0  0  0
    5.6845    4.3220   -0.1606 H   0  0  0  0  0  0  0  0  0  0  0  0
    5.2972    3.4334   -1.6399 H   0  0  0  0  0  0  0  0  0  0  0  0
    4.0261    4.3272   -0.7866 H   0  0  0  0  0  0  0  0  0  0  0  0
    5.5387    1.8859    0.2874 H   0  0  0  0  0  0  0  0  0  0  0  0
    3.2038    3.4311    1.5366 H   0  0  0  0  0  0  0  0  0  0  0  0
    4.8921    3.5009    2.0693 H   0  0  0  0  0  0  0  0  0  0  0  0
    3.9860    1.9927    2.2154 H   0  0  0  0  0  0  0  0  0  0  0  0
    2.5848    2.0995   -0.5482 H   0  0  0  0  0  0  0  0  0  0  0  0
    3.8365    1.4397   -1.5843 H   0  0  0  0  0  0  0  0  0  0  0  0
    2.0212   -1.9150    0.5903 H   0  0  0  0  0  0  0  0  0  0  0  0
    2.8768   -1.3759    2.0541 H   0  0  0  0  0  0  0  0  0  0  0  0
    1.5565   -1.7635    3.9728 H   0  0  0  0  0  0  0  0  0  0  0  0
   -0.2636   -1.4393    3.9687 H   0  0  0  0  0  0  0  0  0  0  0  0
   -1.3874   -0.8317    2.0139 H   0  0  0  0  0  0  0  0  0  0  0  0
   -0.5272   -2.5394    0.1899 H   0  0  0  0  0  0  0  0  0  0  0  0
   -5.2533   -2.9321   -0.0582 H   0  0  0  0  0  0  0  0  0  0  0  0
   -5.9755   -1.0984   -1.4769 H   0  0  0  0  0  0  0  0  0  0  0  0
   -3.8093    2.7027   -3.4177 H   0  0  0  0  0  0  0  0  0  0  0  0
   -5.4708    1.0091   -2.7421 H   0  0  0  0  0  0  0  0  0  0  0  0
   -3.9624   -4.8760    0.3577 H   0  0  0  0  0  0  0  0  0  0  0  0
   -4.3935   -3.9480    1.8484 H   0  0  0  0  0  0  0  0  0  0  0  0
   -3.0165   -5.0555    1.8401 H   0  0  0  0  0  0  0  0  0  0  0  0
   -0.0850   -0.1066   -1.1436 H   0  0  0  0  0  0  0  0  0  0  0  0
    0.5036    0.9115    0.9313 H   0  0  0  0  0  0  0  0  0  0  0  0
  1  2  1  0
  2  3  1  0
  2  4  1  0
  4  5  1  0
  5  6  2  0
  5  7  1  0
  7  8  1  0
  8  9  1  0
  9 10  2  0
  9 11  1  0
 11 12  1  0
 12 13  1  0
 13 14  2  0
 14 15  1  0
 15 16  2  0
 16 17  1  0
 17 18  2  0
 18 19  1  0
 19 20  1  0
 20 21  2  0
 20 22  1  0
 22 23  2  0
 14 24  1  0
 24 25  1  0
 12 26  1  0
 11 27  1  0
 18 13  1  0
 23 17  1  0
  1 28  1  0
  1 29  1  0
  1 30  1  0
  2 31  1  0
  3 32  1  0
  3 33  1  0
  3 34  1  0
  4 35  1  0
  4 36  1  0
  8 37  1  0
  8 38  1  0
 10 39  1  0
 10 40  1  0
 11 41  1  0
 12 42  1  0
 15 43  1  0
 16 44  1  0
 22 45  1  0
 23 46  1  0
 25 47  1  0
 25 48  1  0
 25 49  1  0
 26 50  1  0
 27 51  1  0
M  END
>  <Name>  (817) 
Micromarin B

>  <PubChem ID>  (817) 
10595678

>  <CDB ID>  (817) 
CDB0817

>  <Smiles>  (817) 
CC(C)CC(=O)OCC(=C)C(C(C1=C(C=CC2=C1OC(=O)C=C2)OC)O)O

>  <Chemical class>  (817) 
Simple prenylated coumarins

>  <Natural source>  (817) 
Micromelum falcatum

>  <Molecular Formula>  (817) 
C20H24O7

>  <InChI-Key>  (817) 
RPWASDJXFDDBFQ-UHFFFAOYSA-N

>  <Total Molweight>  (817) 
376.404

>  <cLogP>  (817) 
2.1097

>  <cLogS>  (817) 
-3.15

>  <H-Acceptors>  (817) 
7

>  <H-Donors>  (817) 
2

>  <Rotatable Bonds>  (817) 
9

>  <Polar Surface Area>  (817) 
102.29

$$$$
CDB0818
     RDKit          3D

 51 52  0  0  0  0  0  0  0  0999 V2000
    4.9199    3.7089   -0.6494 C   0  0  0  0  0  0  0  0  0  0  0  0
    4.6107    2.4620    0.1800 C   0  0  0  0  0  0  0  0  0  0  0  0
    4.1432    2.8695    1.5791 C   0  0  0  0  0  0  0  0  0  0  0  0
    3.5625    1.6022   -0.5347 C   0  0  0  0  0  0  0  0  0  0  0  0
    3.4357    0.2379    0.0970 C   0  0  0  0  0  0  0  0  0  0  0  0
    4.2819   -0.6413    0.0129 O   0  0  0  0  0  0  0  0  0  0  0  0
    2.2671    0.1444    0.7899 O   0  0  0  0  0  0  0  0  0  0  0  0
    2.0493   -1.1465    1.3710 C   0  0  0  0  0  0  0  0  0  0  0  0
    0.7351   -1.1165    2.1178 C   0  0  0  0  0  0  0  0  0  0  0  0
    0.6728   -1.4608    3.4182 C   0  0  0  0  0  0  0  0  0  0  0  0
   -0.5175   -0.6952    1.3589 C   0  0  0  0  0  0  0  0  0  0  0  0
   -0.7673   -1.4814    0.0353 C   0  0  0  0  0  0  0  0  0  0  0  0
   -2.2192   -1.3666   -0.4176 C   0  0  0  0  0  0  0  0  0  0  0  0
   -3.1644   -2.3202    0.0188 C   0  0  0  0  0  0  0  0  0  0  0  0
   -4.5048   -2.2131   -0.3763 C   0  0  0  0  0  0  0  0  0  0  0  0
   -4.9283   -1.1579   -1.1899 C   0  0  0  0  0  0  0  0  0  0  0  0
   -4.0186   -0.1916   -1.6099 C   0  0  0  0  0  0  0  0  0  0  0  0
   -2.6832   -0.3050   -1.2177 C   0  0  0  0  0  0  0  0  0  0  0  0
   -1.7581    0.6875   -1.6255 O   0  0  0  0  0  0  0  0  0  0  0  0
   -2.1243    1.7740   -2.4061 C   0  0  0  0  0  0  0  0  0  0  0  0
   -1.3187    2.6270   -2.7589 O   0  0  0  0  0  0  0  0  0  0  0  0
   -3.5377    1.8521   -2.8050 C   0  0  0  0  0  0  0  0  0  0  0  0
   -4.4331    0.9316   -2.4366 C   0  0  0  0  0  0  0  0  0  0  0  0
   -2.6845   -3.3021    0.8480 O   0  0  0  0  0  0  0  0  0  0  0  0
   -3.5782   -4.3401    1.2319 C   0  0  0  0  0  0  0  0  0  0  0  0
    0.1343   -1.0462   -0.9940 O   0  0  0  0  0  0  0  0  0  0  0  0
   -0.4378    0.7132    1.0933 O   0  0  0  0  0  0  0  0  0  0  0  0
    5.6845    4.3220   -0.1606 H   0  0  0  0  0  0  0  0  0  0  0  0
    5.2972    3.4334   -1.6399 H   0  0  0  0  0  0  0  0  0  0  0  0
    4.0261    4.3272   -0.7866 H   0  0  0  0  0  0  0  0  0  0  0  0
    5.5387    1.8859    0.2874 H   0  0  0  0  0  0  0  0  0  0  0  0
    3.2038    3.4311    1.5366 H   0  0  0  0  0  0  0  0  0  0  0  0
    4.8921    3.5009    2.0693 H   0  0  0  0  0  0  0  0  0  0  0  0
    3.9860    1.9927    2.2154 H   0  0  0  0  0  0  0  0  0  0  0  0
    2.5848    2.0995   -0.5482 H   0  0  0  0  0  0  0  0  0  0  0  0
    3.8365    1.4397   -1.5843 H   0  0  0  0  0  0  0  0  0  0  0  0
    2.0212   -1.9150    0.5903 H   0  0  0  0  0  0  0  0  0  0  0  0
    2.8768   -1.3759    2.0541 H   0  0  0  0  0  0  0  0  0  0  0  0
    1.5565   -1.7635    3.9728 H   0  0  0  0  0  0  0  0  0  0  0  0
   -0.2636   -1.4393    3.9687 H   0  0  0  0  0  0  0  0  0  0  0  0
   -1.3874   -0.8317    2.0139 H   0  0  0  0  0  0  0  0  0  0  0  0
   -0.5272   -2.5394    0.1899 H   0  0  0  0  0  0  0  0  0  0  0  0
   -5.2533   -2.9321   -0.0582 H   0  0  0  0  0  0  0  0  0  0  0  0
   -5.9755   -1.0984   -1.4769 H   0  0  0  0  0  0  0  0  0  0  0  0
   -3.8093    2.7027   -3.4177 H   0  0  0  0  0  0  0  0  0  0  0  0
   -5.4708    1.0091   -2.7421 H   0  0  0  0  0  0  0  0  0  0  0  0
   -3.9624   -4.8760    0.3577 H   0  0  0  0  0  0  0  0  0  0  0  0
   -4.3935   -3.9480    1.8484 H   0  0  0  0  0  0  0  0  0  0  0  0
   -3.0165   -5.0555    1.8401 H   0  0  0  0  0  0  0  0  0  0  0  0
   -0.0850   -0.1066   -1.1436 H   0  0  0  0  0  0  0  0  0  0  0  0
    0.5036    0.9115    0.9313 H   0  0  0  0  0  0  0  0  0  0  0  0
  1  2  1  0
  2  3  1  0
  2  4  1  0
  4  5  1  0
  5  6  2  0
  5  7  1  0
  7  8  1  0
  8  9  1  0
  9 10  2  0
  9 11  1  0
 11 12  1  0
 12 13  1  0
 13 14  2  0
 14 15  1  0
 15 16  2  0
 16 17  1  0
 17 18  2  0
 18 19  1  0
 19 20  1  0
 20 21  2  0
 20 22  1  0
 22 23  2  0
 14 24  1  0
 24 25  1  0
 12 26  1  0
 11 27  1  0
 18 13  1  0
 23 17  1  0
  1 28  1  0
  1 29  1  0
  1 30  1  0
  2 31  1  0
  3 32  1  0
  3 33  1  0
  3 34  1  0
  4 35  1  0
  4 36  1  0
  8 37  1  0
  8 38  1  0
 10 39  1  0
 10 40  1  0
 11 41  1  0
 12 42  1  0
 15 43  1  0
 16 44  1  0
 22 45  1  0
 23 46  1  0
 25 47  1  0
 25 48  1  0
 25 49  1  0
 26 50  1  0
 27 51  1  0
M  END
>  <Name>  (818) 
Micromarin C

>  <PubChem ID>  (818) 
11793924

>  <CDB ID>  (818) 
CDB0818

>  <Smiles>  (818) 
CC(C)CC(=O)OCC(=C)C(C(C1=C(C=CC2=C1OC(=O)C=C2)OC)O)O

>  <Chemical class>  (818) 
Simple prenylated coumarins

>  <Natural source>  (818) 
Micromelum falcatum

>  <Molecular Formula>  (818) 
C20H24O7

>  <InChI-Key>  (818) 
RPWASDJXFDDBFQ-UHFFFAOYSA-N

>  <Total Molweight>  (818) 
376.404

>  <cLogP>  (818) 
2.1097

>  <cLogS>  (818) 
-3.15

>  <H-Acceptors>  (818) 
7

>  <H-Donors>  (818) 
2

>  <Rotatable Bonds>  (818) 
9

>  <Polar Surface Area>  (818) 
102.29

$$$$
CDB0819
     RDKit          3D

 35 36  0  0  0  0  0  0  0  0999 V2000
    3.1741   -1.5165   -0.3514 C   0  0  0  0  0  0  0  0  0  0  0  0
    2.8165   -0.1083    0.0478 C   0  0  0  0  0  0  0  0  0  0  0  0
    1.7120    0.5440   -0.3751 C   0  0  0  0  0  0  0  0  0  0  0  0
    0.6396    0.0674   -1.3214 C   0  0  0  0  0  0  0  0  0  0  0  0
   -0.7029   -0.0866   -0.6373 C   0  0  0  0  0  0  0  0  0  0  0  0
   -1.1011   -1.3162   -0.0772 C   0  0  0  0  0  0  0  0  0  0  0  0
   -2.3415   -1.4180    0.5672 C   0  0  0  0  0  0  0  0  0  0  0  0
   -3.1862   -0.3077    0.6763 C   0  0  0  0  0  0  0  0  0  0  0  0
   -2.8013    0.9186    0.1405 C   0  0  0  0  0  0  0  0  0  0  0  0
   -1.5692    1.0138   -0.5066 C   0  0  0  0  0  0  0  0  0  0  0  0
   -1.1596    2.2537   -1.0535 O   0  0  0  0  0  0  0  0  0  0  0  0
   -1.9473    3.3925   -0.9710 C   0  0  0  0  0  0  0  0  0  0  0  0
   -1.6014    4.4679   -1.4457 O   0  0  0  0  0  0  0  0  0  0  0  0
   -3.2401    3.2539   -0.2815 C   0  0  0  0  0  0  0  0  0  0  0  0
   -3.6496    2.0953    0.2427 C   0  0  0  0  0  0  0  0  0  0  0  0
   -0.2240   -2.3591   -0.2250 O   0  0  0  0  0  0  0  0  0  0  0  0
   -0.4884   -3.5494    0.5056 C   0  0  0  0  0  0  0  0  0  0  0  0
    3.8205    0.4984    1.0062 C   0  0  0  0  0  0  0  0  0  0  0  0
    3.6182    1.8900    1.1990 O   0  0  0  0  0  0  0  0  0  0  0  0
    2.4510   -1.9852   -1.0204 H   0  0  0  0  0  0  0  0  0  0  0  0
    4.1428   -1.5270   -0.8624 H   0  0  0  0  0  0  0  0  0  0  0  0
    3.2478   -2.1502    0.5391 H   0  0  0  0  0  0  0  0  0  0  0  0
    1.5290    1.5507    0.0018 H   0  0  0  0  0  0  0  0  0  0  0  0
    0.9080   -0.8604   -1.8342 H   0  0  0  0  0  0  0  0  0  0  0  0
    0.5541    0.7968   -2.1374 H   0  0  0  0  0  0  0  0  0  0  0  0
   -2.6849   -2.3545    0.9953 H   0  0  0  0  0  0  0  0  0  0  0  0
   -4.1411   -0.4177    1.1847 H   0  0  0  0  0  0  0  0  0  0  0  0
   -3.8423    4.1523   -0.2245 H   0  0  0  0  0  0  0  0  0  0  0  0
   -4.6063    2.0166    0.7472 H   0  0  0  0  0  0  0  0  0  0  0  0
    0.3587   -4.2262    0.3578 H   0  0  0  0  0  0  0  0  0  0  0  0
   -0.5702   -3.3487    1.5790 H   0  0  0  0  0  0  0  0  0  0  0  0
   -1.3843   -4.0508    0.1258 H   0  0  0  0  0  0  0  0  0  0  0  0
    3.7509    0.0059    1.9813 H   0  0  0  0  0  0  0  0  0  0  0  0
    4.8391    0.3645    0.6266 H   0  0  0  0  0  0  0  0  0  0  0  0
    3.6793    2.2999    0.3195 H   0  0  0  0  0  0  0  0  0  0  0  0
  1  2  1  0
  2  3  2  3
  3  4  1  0
  4  5  1  0
  5  6  2  0
  6  7  1  0
  7  8  2  0
  8  9  1  0
  9 10  2  0
 10 11  1  0
 11 12  1  0
 12 13  2  0
 12 14  1  0
 14 15  2  0
  6 16  1  0
 16 17  1  0
  2 18  1  0
 18 19  1  0
 10  5  1  0
 15  9  1  0
  1 20  1  0
  1 21  1  0
  1 22  1  0
  3 23  1  0
  4 24  1  0
  4 25  1  0
  7 26  1  0
  8 27  1  0
 14 28  1  0
 15 29  1  0
 17 30  1  0
 17 31  1  0
 17 32  1  0
 18 33  1  0
 18 34  1  0
 19 35  1  0
M  END
>  <Name>  (819) 
Micromarin F

>  <PubChem ID>  (819) 
10730037

>  <CDB ID>  (819) 
CDB0819

>  <Smiles>  (819) 
CC(=CCC1=C(C=CC2=C1OC(=O)C=C2)OC)CO

>  <Chemical class>  (819) 
Simple prenylated coumarins

>  <Natural source>  (819) 
Micromelum falcatum

>  <Molecular Formula>  (819) 
C15H16O4

>  <InChI-Key>  (819) 
NYBDJZVNEBTWCZ-UHFFFAOYSA-N

>  <Total Molweight>  (819) 
260.288

>  <cLogP>  (819) 
2.5232

>  <cLogS>  (819) 
-2.82

>  <H-Acceptors>  (819) 
4

>  <H-Donors>  (819) 
1

>  <Rotatable Bonds>  (819) 
4

>  <Polar Surface Area>  (819) 
55.76

$$$$
CDB0820
     RDKit          3D

 28 31  0  0  0  0  0  0  0  0999 V2000
   -1.7800    1.9137   -1.4939 C   0  0  0  0  0  0  0  0  0  0  0  0
   -2.0480    1.1180   -0.4494 C   0  0  0  0  0  0  0  0  0  0  0  0
   -3.3232    0.3759   -0.2254 C   0  0  0  0  0  0  0  0  0  0  0  0
   -3.4493    0.2785    1.1968 O   0  0  0  0  0  0  0  0  0  0  0  0
   -2.1164    0.1666    1.7188 C   0  0  0  0  0  0  0  0  0  0  0  0
   -1.1815    0.9288    0.7570 C   0  0  0  0  0  0  0  0  0  0  0  0
   -0.1007   -0.0742    0.6209 C   0  0  0  0  0  0  0  0  0  0  0  0
   -0.4740   -1.2586    1.2317 C   0  0  0  0  0  0  0  0  0  0  0  0
   -1.7124   -1.2228    1.8118 O   0  0  0  0  0  0  0  0  0  0  0  0
    0.3399   -2.3761    1.2289 C   0  0  0  0  0  0  0  0  0  0  0  0
    1.5846   -2.2887    0.5957 C   0  0  0  0  0  0  0  0  0  0  0  0
    1.9859   -1.0911   -0.0199 C   0  0  0  0  0  0  0  0  0  0  0  0
    1.1312    0.0137    0.0003 C   0  0  0  0  0  0  0  0  0  0  0  0
    1.4990    1.2293   -0.5976 O   0  0  0  0  0  0  0  0  0  0  0  0
    2.7178    1.3686   -1.2463 C   0  0  0  0  0  0  0  0  0  0  0  0
    3.0559    2.4160   -1.7853 O   0  0  0  0  0  0  0  0  0  0  0  0
    3.6066    0.1933   -1.2604 C   0  0  0  0  0  0  0  0  0  0  0  0
    3.2726   -0.9664   -0.6859 C   0  0  0  0  0  0  0  0  0  0  0  0
   -2.4868    2.0347   -2.3094 H   0  0  0  0  0  0  0  0  0  0  0  0
   -0.8457    2.4643   -1.5616 H   0  0  0  0  0  0  0  0  0  0  0  0
   -3.2742   -0.6347   -0.6445 H   0  0  0  0  0  0  0  0  0  0  0  0
   -4.1992    0.8950   -0.6239 H   0  0  0  0  0  0  0  0  0  0  0  0
   -2.1014    0.5884    2.7309 H   0  0  0  0  0  0  0  0  0  0  0  0
   -0.8505    1.8760    1.1938 H   0  0  0  0  0  0  0  0  0  0  0  0
    0.0182   -3.2958    1.7068 H   0  0  0  0  0  0  0  0  0  0  0  0
    2.2347   -3.1606    0.5872 H   0  0  0  0  0  0  0  0  0  0  0  0
    4.5541    0.3268   -1.7681 H   0  0  0  0  0  0  0  0  0  0  0  0
    3.9429   -1.8185   -0.7089 H   0  0  0  0  0  0  0  0  0  0  0  0
  1  2  2  0
  2  3  1  0
  3  4  1  0
  4  5  1  0
  5  6  1  0
  6  7  1  0
  7  8  2  0
  8  9  1  0
  8 10  1  0
 10 11  2  0
 11 12  1  0
 12 13  2  0
 13 14  1  0
 14 15  1  0
 15 16  2  0
 15 17  1  0
 17 18  2  0
  6  2  1  0
  9  5  1  0
 13  7  1  0
 18 12  1  0
  1 19  1  0
  1 20  1  0
  3 21  1  0
  3 22  1  0
  5 23  1  0
  6 24  1  0
 10 25  1  0
 11 26  1  0
 17 27  1  0
 18 28  1  0
M  END
>  <Name>  (820) 
Microminutinin

>  <PubChem ID>  (820) 
15480775

>  <CDB ID>  (820) 
CDB0820

>  <Smiles>  (820) 
C=C1COC2C1C3=C(O2)C=CC4=C3OC(=O)C=C4

>  <Chemical class>  (820) 
Simple prenylated coumarins

>  <Natural source>  (820) 
Cnidium monnieri

>  <Molecular Formula>  (820) 
C14H10O4

>  <InChI-Key>  (820) 
LBKZVXDBYGRCRP-UHFFFAOYSA-N

>  <Total Molweight>  (820) 
242.229

>  <cLogP>  (820) 
2.3564

>  <cLogS>  (820) 
-3.226

>  <H-Acceptors>  (820) 
4

>  <H-Donors>  (820) 
0

>  <Rotatable Bonds>  (820) 
0

>  <Polar Surface Area>  (820) 
44.76

$$$$
CDB0821
     RDKit          3D

 32 35  0  0  0  0  0  0  0  0999 V2000
   -2.3783    3.5524   -1.0098 C   0  0  0  0  0  0  0  0  0  0  0  0
   -1.1168    3.0663   -0.5735 O   0  0  0  0  0  0  0  0  0  0  0  0
   -1.0379    1.7492   -0.2240 C   0  0  0  0  0  0  0  0  0  0  0  0
    0.2157    1.2853    0.1631 C   0  0  0  0  0  0  0  0  0  0  0  0
    0.4378   -0.0315    0.5360 C   0  0  0  0  0  0  0  0  0  0  0  0
   -0.6156   -0.9239    0.5466 C   0  0  0  0  0  0  0  0  0  0  0  0
   -1.8917   -0.5017    0.1714 C   0  0  0  0  0  0  0  0  0  0  0  0
   -2.1002    0.8359   -0.2154 C   0  0  0  0  0  0  0  0  0  0  0  0
   -2.9785   -1.4694    0.1897 C   0  0  0  0  0  0  0  0  0  0  0  0
   -2.7329   -2.7297    0.5608 C   0  0  0  0  0  0  0  0  0  0  0  0
   -1.3917   -3.1899    0.9610 C   0  0  0  0  0  0  0  0  0  0  0  0
   -1.2017   -4.3540    1.2930 O   0  0  0  0  0  0  0  0  0  0  0  0
   -0.3731   -2.2476    0.9449 O   0  0  0  0  0  0  0  0  0  0  0  0
    1.8673   -0.2379    0.8615 C   0  0  0  0  0  0  0  0  0  0  0  0
    2.3496    1.2247    0.8254 C   0  0  0  0  0  0  0  0  0  0  0  0
    1.3498    2.0599    0.1969 O   0  0  0  0  0  0  0  0  0  0  0  0
    3.5793    1.2461    0.0842 O   0  0  0  0  0  0  0  0  0  0  0  0
    3.4862    0.1969   -0.8843 C   0  0  0  0  0  0  0  0  0  0  0  0
    2.6934   -0.8752   -0.2131 C   0  0  0  0  0  0  0  0  0  0  0  0
    2.7991   -2.1898   -0.4508 C   0  0  0  0  0  0  0  0  0  0  0  0
   -2.7151    3.0265   -1.9093 H   0  0  0  0  0  0  0  0  0  0  0  0
   -2.2595    4.6093   -1.2669 H   0  0  0  0  0  0  0  0  0  0  0  0
   -3.1239    3.4858   -0.2107 H   0  0  0  0  0  0  0  0  0  0  0  0
   -3.0998    1.1441   -0.5046 H   0  0  0  0  0  0  0  0  0  0  0  0
   -3.9750   -1.1553   -0.1008 H   0  0  0  0  0  0  0  0  0  0  0  0
   -3.5137   -3.4803    0.5857 H   0  0  0  0  0  0  0  0  0  0  0  0
    2.0361   -0.6864    1.8454 H   0  0  0  0  0  0  0  0  0  0  0  0
    2.5394    1.6236    1.8291 H   0  0  0  0  0  0  0  0  0  0  0  0
    4.4953   -0.1222   -1.1591 H   0  0  0  0  0  0  0  0  0  0  0  0
    2.9684    0.5794   -1.7703 H   0  0  0  0  0  0  0  0  0  0  0  0
    3.4624   -2.5740   -1.2200 H   0  0  0  0  0  0  0  0  0  0  0  0
    2.2257   -2.9167    0.1178 H   0  0  0  0  0  0  0  0  0  0  0  0
  1  2  1  0
  2  3  1  0
  3  4  1  0
  4  5  2  0
  5  6  1  0
  6  7  2  0
  7  8  1  0
  7  9  1  0
  9 10  2  0
 10 11  1  0
 11 12  2  0
 11 13  1  0
  5 14  1  0
 14 15  1  0
 15 16  1  0
 15 17  1  0
 17 18  1  0
 18 19  1  0
 19 20  2  0
  8  3  2  0
 16  4  1  0
 13  6  1  0
 19 14  1  0
  1 21  1  0
  1 22  1  0
  1 23  1  0
  8 24  1  0
  9 25  1  0
 10 26  1  0
 14 27  1  0
 15 28  1  0
 18 29  1  0
 18 30  1  0
 20 31  1  0
 20 32  1  0
M  END
>  <Name>  (821) 
6-Methoxymicrominutinin

>  <PubChem ID>  (821) 
15480776

>  <CDB ID>  (821) 
CDB0821

>  <Smiles>  (821) 
COC1=C2C(=C3C(=C1)C=CC(=O)O3)C4C(O2)OCC4=C

>  <Chemical class>  (821) 
Simple prenylated coumarins

>  <Natural source>  (821) 
Micromelum minutum

>  <Molecular Formula>  (821) 
C15H12O5

>  <InChI-Key>  (821) 
IDDJLWFUDAQMQK-UHFFFAOYSA-N

>  <Total Molweight>  (821) 
272.255

>  <cLogP>  (821) 
2.2864

>  <cLogS>  (821) 
-3.244

>  <H-Acceptors>  (821) 
5

>  <H-Donors>  (821) 
0

>  <Rotatable Bonds>  (821) 
1

>  <Polar Surface Area>  (821) 
53.99

$$$$
CDB0822
     RDKit          3D

 34 36  0  0  0  0  0  0  0  0999 V2000
   -0.3028    2.0500    2.6287 C   0  0  0  0  0  0  0  0  0  0  0  0
    0.0058    0.6591    2.5598 O   0  0  0  0  0  0  0  0  0  0  0  0
    0.9009    0.3953    1.5573 C   0  0  0  0  0  0  0  0  0  0  0  0
    0.5093   -0.3389    0.4285 C   0  0  0  0  0  0  0  0  0  0  0  0
    1.4933   -0.5614   -0.5544 C   0  0  0  0  0  0  0  0  0  0  0  0
    2.8142   -0.1229   -0.4182 C   0  0  0  0  0  0  0  0  0  0  0  0
    3.1815    0.5662    0.7346 C   0  0  0  0  0  0  0  0  0  0  0  0
    2.2276    0.8211    1.7201 C   0  0  0  0  0  0  0  0  0  0  0  0
    3.7738   -0.3997   -1.4757 C   0  0  0  0  0  0  0  0  0  0  0  0
    3.3833   -1.0557   -2.5720 C   0  0  0  0  0  0  0  0  0  0  0  0
    1.9997   -1.5182   -2.7598 C   0  0  0  0  0  0  0  0  0  0  0  0
    1.6634   -2.1025   -3.7829 O   0  0  0  0  0  0  0  0  0  0  0  0
    1.1087   -1.2561   -1.7291 O   0  0  0  0  0  0  0  0  0  0  0  0
   -0.8962   -0.8535    0.1916 C   0  0  0  0  0  0  0  0  0  0  0  0
   -1.7399    0.0184   -0.7574 C   0  0  0  0  0  0  0  0  0  0  0  0
   -3.1062   -0.4176   -0.3608 C   0  0  0  0  0  0  0  0  0  0  0  0
   -4.1548   -0.5956   -1.1751 C   0  0  0  0  0  0  0  0  0  0  0  0
   -3.0452   -0.7532    1.0937 C   0  0  0  0  0  0  0  0  0  0  0  0
   -1.6752   -1.0529    1.3916 O   0  0  0  0  0  0  0  0  0  0  0  0
   -1.6471    1.4163   -0.4915 O   0  0  0  0  0  0  0  0  0  0  0  0
   -1.2553    2.1560    3.1565 H   0  0  0  0  0  0  0  0  0  0  0  0
   -0.4118    2.5043    1.6379 H   0  0  0  0  0  0  0  0  0  0  0  0
    0.4632    2.5805    3.2035 H   0  0  0  0  0  0  0  0  0  0  0  0
    4.2019    0.9099    0.8820 H   0  0  0  0  0  0  0  0  0  0  0  0
    2.5203    1.3465    2.6255 H   0  0  0  0  0  0  0  0  0  0  0  0
    4.7994   -0.0671   -1.3585 H   0  0  0  0  0  0  0  0  0  0  0  0
    4.0695   -1.2782   -3.3799 H   0  0  0  0  0  0  0  0  0  0  0  0
   -0.8167   -1.8646   -0.2331 H   0  0  0  0  0  0  0  0  0  0  0  0
   -1.4942   -0.1563   -1.8093 H   0  0  0  0  0  0  0  0  0  0  0  0
   -4.0920   -0.3763   -2.2368 H   0  0  0  0  0  0  0  0  0  0  0  0
   -5.1021   -0.9708   -0.7985 H   0  0  0  0  0  0  0  0  0  0  0  0
   -3.3450    0.1005    1.7094 H   0  0  0  0  0  0  0  0  0  0  0  0
   -3.6585   -1.6211    1.3530 H   0  0  0  0  0  0  0  0  0  0  0  0
   -2.3729    1.8387   -0.9809 H   0  0  0  0  0  0  0  0  0  0  0  0
  1  2  1  0
  2  3  1  0
  3  4  2  0
  4  5  1  0
  5  6  2  0
  6  7  1  0
  7  8  2  0
  6  9  1  0
  9 10  2  0
 10 11  1  0
 11 12  2  0
 11 13  1  0
  4 14  1  0
 14 15  1  0
 15 16  1  0
 16 17  2  0
 16 18  1  0
 18 19  1  0
 15 20  1  0
  8  3  1  0
 13  5  1  0
 19 14  1  0
  1 21  1  0
  1 22  1  0
  1 23  1  0
  7 24  1  0
  8 25  1  0
  9 26  1  0
 10 27  1  0
 14 28  1  0
 15 29  1  0
 17 30  1  0
 17 31  1  0
 18 32  1  0
 18 33  1  0
 20 34  1  0
M  END
>  <Name>  (822) 
Wampetin

>  <PubChem ID>  (822) 
101897657

>  <CDB ID>  (822) 
CDB0822

>  <Smiles>  (822) 
COC1=C(C2=C(C=C1)C=CC(=O)O2)C3C(C(=C)CO3)O

>  <Chemical class>  (822) 
Simple prenylated coumarins

>  <Natural source>  (822) 
Micromelum falcatum

>  <Molecular Formula>  (822) 
C15H14O5

>  <InChI-Key>  (822) 
NTKZVMCLJUKOBI-UHFFFAOYSA-N

>  <Total Molweight>  (822) 
274.271

>  <cLogP>  (822) 
1.221

>  <cLogS>  (822) 
-2.521

>  <H-Acceptors>  (822) 
5

>  <H-Donors>  (822) 
1

>  <Rotatable Bonds>  (822) 
2

>  <Polar Surface Area>  (822) 
64.99

$$$$
CDB0823
     RDKit          3D

 48 50  0  0  0  0  0  0  0  0999 V2000
    4.3509    1.1744   -0.7275 C   0  0  0  0  0  0  0  0  0  0  0  0
    3.3953    1.7869    0.2996 C   0  0  0  0  0  0  0  0  0  0  0  0
    4.1696    2.7193    1.2333 C   0  0  0  0  0  0  0  0  0  0  0  0
    2.6775    0.7013    1.1162 C   0  0  0  0  0  0  0  0  0  0  0  0
    1.6199   -0.0384    0.3266 C   0  0  0  0  0  0  0  0  0  0  0  0
    1.2101    0.2787   -0.7798 O   0  0  0  0  0  0  0  0  0  0  0  0
    1.1786   -1.0978    1.0579 O   0  0  0  0  0  0  0  0  0  0  0  0
    0.0779   -1.8168    0.4905 C   0  0  0  0  0  0  0  0  0  0  0  0
   -1.2744   -1.2640    0.9677 C   0  0  0  0  0  0  0  0  0  0  0  0
   -2.1923   -2.3771    1.0812 O   0  0  0  0  0  0  0  0  0  0  0  0
   -1.4332   -3.5933    1.0527 C   0  0  0  0  0  0  0  0  0  0  0  0
    0.0072   -3.2020    1.0581 C   0  0  0  0  0  0  0  0  0  0  0  0
    1.0086   -3.9294    1.5737 C   0  0  0  0  0  0  0  0  0  0  0  0
   -1.8552   -0.1963    0.0605 C   0  0  0  0  0  0  0  0  0  0  0  0
   -1.8317    1.1612    0.4427 C   0  0  0  0  0  0  0  0  0  0  0  0
   -2.3774    2.1356   -0.4046 C   0  0  0  0  0  0  0  0  0  0  0  0
   -2.9290    1.7832   -1.6404 C   0  0  0  0  0  0  0  0  0  0  0  0
   -2.9304    0.4531   -2.0503 C   0  0  0  0  0  0  0  0  0  0  0  0
   -2.3900   -0.5146   -1.2022 C   0  0  0  0  0  0  0  0  0  0  0  0
   -2.3517   -1.8646   -1.6279 O   0  0  0  0  0  0  0  0  0  0  0  0
   -2.8583   -2.2739   -2.8513 C   0  0  0  0  0  0  0  0  0  0  0  0
   -2.8253   -3.4422   -3.2202 O   0  0  0  0  0  0  0  0  0  0  0  0
   -3.4408   -1.2281   -3.7066 C   0  0  0  0  0  0  0  0  0  0  0  0
   -3.4766    0.0556   -3.3385 C   0  0  0  0  0  0  0  0  0  0  0  0
   -1.2410    1.4380    1.6498 O   0  0  0  0  0  0  0  0  0  0  0  0
   -1.1277    2.8025    2.0331 C   0  0  0  0  0  0  0  0  0  0  0  0
    5.1231    0.5693   -0.2402 H   0  0  0  0  0  0  0  0  0  0  0  0
    3.8182    0.5336   -1.4368 H   0  0  0  0  0  0  0  0  0  0  0  0
    4.8525    1.9589   -1.3043 H   0  0  0  0  0  0  0  0  0  0  0  0
    2.6532    2.3901   -0.2387 H   0  0  0  0  0  0  0  0  0  0  0  0
    4.9275    2.1715    1.8037 H   0  0  0  0  0  0  0  0  0  0  0  0
    3.4941    3.2050    1.9455 H   0  0  0  0  0  0  0  0  0  0  0  0
    4.6759    3.5067    0.6650 H   0  0  0  0  0  0  0  0  0  0  0  0
    3.4062   -0.0249    1.4954 H   0  0  0  0  0  0  0  0  0  0  0  0
    2.1662    1.1593    1.9716 H   0  0  0  0  0  0  0  0  0  0  0  0
    0.1581   -1.8971   -0.6010 H   0  0  0  0  0  0  0  0  0  0  0  0
   -1.1753   -0.8759    1.9890 H   0  0  0  0  0  0  0  0  0  0  0  0
   -1.6916   -4.1321    0.1357 H   0  0  0  0  0  0  0  0  0  0  0  0
   -1.7122   -4.1999    1.9191 H   0  0  0  0  0  0  0  0  0  0  0  0
    0.8316   -4.9125    1.9992 H   0  0  0  0  0  0  0  0  0  0  0  0
    2.0296   -3.5601    1.5795 H   0  0  0  0  0  0  0  0  0  0  0  0
   -2.3842    3.1870   -0.1358 H   0  0  0  0  0  0  0  0  0  0  0  0
   -3.3412    2.5621   -2.2772 H   0  0  0  0  0  0  0  0  0  0  0  0
   -3.8361   -1.5623   -4.6577 H   0  0  0  0  0  0  0  0  0  0  0  0
   -3.9071    0.8111   -3.9864 H   0  0  0  0  0  0  0  0  0  0  0  0
   -2.1143    3.2562    2.1720 H   0  0  0  0  0  0  0  0  0  0  0  0
   -0.5266    3.3669    1.3126 H   0  0  0  0  0  0  0  0  0  0  0  0
   -0.6082    2.8358    2.9957 H   0  0  0  0  0  0  0  0  0  0  0  0
  1  2  1  0
  2  3  1  0
  2  4  1  0
  4  5  1  0
  5  6  2  0
  5  7  1  0
  7  8  1  0
  8  9  1  0
  9 10  1  0
 10 11  1  0
 11 12  1  0
 12 13  2  0
  9 14  1  0
 14 15  2  0
 15 16  1  0
 16 17  2  0
 17 18  1  0
 18 19  2  0
 19 20  1  0
 20 21  1  0
 21 22  2  0
 21 23  1  0
 23 24  2  0
 15 25  1  0
 25 26  1  0
 12  8  1  0
 19 14  1  0
 24 18  1  0
  1 27  1  0
  1 28  1  0
  1 29  1  0
  2 30  1  0
  3 31  1  0
  3 32  1  0
  3 33  1  0
  4 34  1  0
  4 35  1  0
  8 36  1  0
  9 37  1  0
 11 38  1  0
 11 39  1  0
 13 40  1  0
 13 41  1  0
 16 42  1  0
 17 43  1  0
 23 44  1  0
 24 45  1  0
 26 46  1  0
 26 47  1  0
 26 48  1  0
M  END
>  <Name>  (823) 
Micromelosidester

>  <PubChem ID>  (823) 
51694173

>  <CDB ID>  (823) 
CDB0823

>  <Smiles>  (823) 
CC(C)CC(=O)OC1C(OCC1=C)C2=C(C=CC3=C2OC(=O)C=C3)OC

>  <Chemical class>  (823) 
Simple prenylated coumarins

>  <Natural source>  (823) 
Micromelum falcatum

>  <Molecular Formula>  (823) 
C20H22O6

>  <InChI-Key>  (823) 
YUGLDRNZSJJFIK-UHFFFAOYSA-N

>  <Total Molweight>  (823) 
358.389

>  <cLogP>  (823) 
2.8327

>  <cLogS>  (823) 
-3.631

>  <H-Acceptors>  (823) 
6

>  <H-Donors>  (823) 
0

>  <Rotatable Bonds>  (823) 
6

>  <Polar Surface Area>  (823) 
71.06

$$$$
CDB0824
     RDKit          3D

 33 34  0  0  0  0  0  0  0  0999 V2000
   -3.3123   -1.7939   -0.0967 C   0  0  0  0  0  0  0  0  0  0  0  0
   -2.0381   -1.0827    0.2646 C   0  0  0  0  0  0  0  0  0  0  0  0
   -1.1714   -0.5354   -0.6195 C   0  0  0  0  0  0  0  0  0  0  0  0
   -1.3250   -0.6052   -2.1180 C   0  0  0  0  0  0  0  0  0  0  0  0
    0.0527    0.1949   -0.2018 C   0  0  0  0  0  0  0  0  0  0  0  0
    0.0071    1.5697    0.1101 C   0  0  0  0  0  0  0  0  0  0  0  0
    1.1801    2.2256    0.5048 C   0  0  0  0  0  0  0  0  0  0  0  0
    2.3933    1.5313    0.5938 C   0  0  0  0  0  0  0  0  0  0  0  0
    2.4505    0.1724    0.2886 C   0  0  0  0  0  0  0  0  0  0  0  0
    1.2827   -0.4793   -0.1052 C   0  0  0  0  0  0  0  0  0  0  0  0
    1.3176   -1.8595   -0.4185 O   0  0  0  0  0  0  0  0  0  0  0  0
    2.4904   -2.5972   -0.3598 C   0  0  0  0  0  0  0  0  0  0  0  0
    2.5352   -3.7879   -0.6442 O   0  0  0  0  0  0  0  0  0  0  0  0
    3.7027   -1.8781    0.0655 C   0  0  0  0  0  0  0  0  0  0  0  0
    3.6933   -0.5776    0.3719 C   0  0  0  0  0  0  0  0  0  0  0  0
   -1.2200    2.1731    0.0017 O   0  0  0  0  0  0  0  0  0  0  0  0
   -1.3144    3.5492    0.3456 C   0  0  0  0  0  0  0  0  0  0  0  0
   -1.8019   -0.9971    1.7402 C   0  0  0  0  0  0  0  0  0  0  0  0
   -2.5721   -1.4807    2.5639 O   0  0  0  0  0  0  0  0  0  0  0  0
   -3.2213   -2.8642    0.1157 H   0  0  0  0  0  0  0  0  0  0  0  0
   -4.1532   -1.3958    0.4821 H   0  0  0  0  0  0  0  0  0  0  0  0
   -3.5866   -1.6807   -1.1483 H   0  0  0  0  0  0  0  0  0  0  0  0
   -0.3528   -0.6811   -2.6186 H   0  0  0  0  0  0  0  0  0  0  0  0
   -1.8268    0.2948   -2.4887 H   0  0  0  0  0  0  0  0  0  0  0  0
   -1.8958   -1.4807   -2.4398 H   0  0  0  0  0  0  0  0  0  0  0  0
    1.1867    3.2830    0.7516 H   0  0  0  0  0  0  0  0  0  0  0  0
    3.2872    2.0686    0.9038 H   0  0  0  0  0  0  0  0  0  0  0  0
    4.6081   -2.4709    0.1142 H   0  0  0  0  0  0  0  0  0  0  0  0
    4.6002   -0.0701    0.6824 H   0  0  0  0  0  0  0  0  0  0  0  0
   -2.3573    3.8546    0.2174 H   0  0  0  0  0  0  0  0  0  0  0  0
   -1.0459    3.7135    1.3943 H   0  0  0  0  0  0  0  0  0  0  0  0
   -0.7029    4.1648   -0.3222 H   0  0  0  0  0  0  0  0  0  0  0  0
   -0.8900   -0.4775    2.0690 H   0  0  0  0  0  0  0  0  0  0  0  0
  1  2  1  0
  2  3  2  3
  3  4  1  0
  3  5  1  0
  5  6  2  0
  6  7  1  0
  7  8  2  0
  8  9  1  0
  9 10  2  0
 10 11  1  0
 11 12  1  0
 12 13  2  0
 12 14  1  0
 14 15  2  0
  6 16  1  0
 16 17  1  0
  2 18  1  0
 18 19  2  0
 10  5  1  0
 15  9  1  0
  1 20  1  0
  1 21  1  0
  1 22  1  0
  4 23  1  0
  4 24  1  0
  4 25  1  0
  7 26  1  0
  8 27  1  0
 14 28  1  0
 15 29  1  0
 17 30  1  0
 17 31  1  0
 17 32  1  0
 18 33  1  0
M  END
>  <Name>  (824) 
Murralogin

>  <PubChem ID>  (824) 
5319957

>  <CDB ID>  (824) 
CDB0824

>  <Smiles>  (824) 
CC(=C(C)C1=C(C=CC2=C1OC(=O)C=C2)OC)C=O

>  <Chemical class>  (824) 
Simple prenylated coumarins

>  <Natural source>  (824) 
Micromelum integerrimum

>  <Molecular Formula>  (824) 
C15H14O4

>  <InChI-Key>  (824) 
JSPFGMUFGCFXKI-UHFFFAOYSA-N

>  <Total Molweight>  (824) 
258.272

>  <cLogP>  (824) 
2.2058

>  <cLogS>  (824) 
-2.857

>  <H-Acceptors>  (824) 
4

>  <H-Donors>  (824) 
0

>  <Rotatable Bonds>  (824) 
3

>  <Polar Surface Area>  (824) 
52.6

$$$$
CDB0825
     RDKit          3D

 36 37  0  0  0  0  0  0  0  0999 V2000
   -0.3910    3.7618   -0.1506 C   0  0  0  0  0  0  0  0  0  0  0  0
   -0.3140    2.3863   -0.5053 O   0  0  0  0  0  0  0  0  0  0  0  0
    0.7811    1.6783   -0.0789 C   0  0  0  0  0  0  0  0  0  0  0  0
    0.7704    0.2967   -0.3657 C   0  0  0  0  0  0  0  0  0  0  0  0
   -0.4209   -0.3160   -1.0850 C   0  0  1  0  0  0  0  0  0  0  0  0
   -0.0516   -1.3626   -1.9824 O   0  0  0  0  0  0  0  0  0  0  0  0
   -1.4974   -0.8248   -0.1087 C   0  0  0  0  0  0  0  0  0  0  0  0
   -1.2603   -1.0794    1.0751 O   0  0  0  0  0  0  0  0  0  0  0  0
   -2.8987   -0.9975   -0.6923 C   0  0  0  0  0  0  0  0  0  0  0  0
   -3.6611    0.3172   -0.5779 C   0  0  0  0  0  0  0  0  0  0  0  0
   -3.6456   -2.1278    0.0098 C   0  0  0  0  0  0  0  0  0  0  0  0
    1.8454   -0.4789    0.1054 C   0  0  0  0  0  0  0  0  0  0  0  0
    2.9208    0.0776    0.7998 C   0  0  0  0  0  0  0  0  0  0  0  0
    3.9990   -0.7814    1.2636 C   0  0  0  0  0  0  0  0  0  0  0  0
    3.9475   -2.0957    1.0303 C   0  0  0  0  0  0  0  0  0  0  0  0
    2.8301   -2.7199    0.3063 C   0  0  0  0  0  0  0  0  0  0  0  0
    2.8111   -3.9254    0.0902 O   0  0  0  0  0  0  0  0  0  0  0  0
    1.8167   -1.8756   -0.1273 O   0  0  0  0  0  0  0  0  0  0  0  0
    2.9290    1.4484    1.0418 C   0  0  0  0  0  0  0  0  0  0  0  0
    1.8637    2.2436    0.6082 C   0  0  0  0  0  0  0  0  0  0  0  0
    0.4139    4.3348   -0.6223 H   0  0  0  0  0  0  0  0  0  0  0  0
   -1.3414    4.1505   -0.5289 H   0  0  0  0  0  0  0  0  0  0  0  0
   -0.3879    3.8914    0.9367 H   0  0  0  0  0  0  0  0  0  0  0  0
   -0.8850    0.4447   -1.7206 H   0  0  0  0  0  0  0  0  0  0  0  0
    0.4800   -1.9981   -1.4674 H   0  0  0  0  0  0  0  0  0  0  0  0
   -2.7957   -1.2697   -1.7493 H   0  0  0  0  0  0  0  0  0  0  0  0
   -3.1443    1.1211   -1.1124 H   0  0  0  0  0  0  0  0  0  0  0  0
   -3.7581    0.6302    0.4677 H   0  0  0  0  0  0  0  0  0  0  0  0
   -4.6664    0.2238   -1.0015 H   0  0  0  0  0  0  0  0  0  0  0  0
   -3.0755   -3.0617   -0.0437 H   0  0  0  0  0  0  0  0  0  0  0  0
   -3.8136   -1.9029    1.0689 H   0  0  0  0  0  0  0  0  0  0  0  0
   -4.6207   -2.2983   -0.4582 H   0  0  0  0  0  0  0  0  0  0  0  0
    4.8324   -0.3419    1.8008 H   0  0  0  0  0  0  0  0  0  0  0  0
    4.7290   -2.7676    1.3630 H   0  0  0  0  0  0  0  0  0  0  0  0
    3.7518    1.9137    1.5795 H   0  0  0  0  0  0  0  0  0  0  0  0
    1.9074    3.3050    0.8314 H   0  0  0  0  0  0  0  0  0  0  0  0
  1  2  1  0
  2  3  1  0
  3  4  2  0
  4  5  1  0
  5  6  1  0
  5  7  1  0
  7  8  2  0
  7  9  1  0
  9 10  1  0
  9 11  1  0
  4 12  1  0
 12 13  2  0
 13 14  1  0
 14 15  2  0
 15 16  1  0
 16 17  2  0
 16 18  1  0
 13 19  1  0
 19 20  2  0
 20  3  1  0
 18 12  1  0
  1 21  1  0
  1 22  1  0
  1 23  1  0
  5 24  1  6
  6 25  1  0
  9 26  1  0
 10 27  1  0
 10 28  1  0
 10 29  1  0
 11 30  1  0
 11 31  1  0
 11 32  1  0
 14 33  1  0
 15 34  1  0
 19 35  1  0
 20 36  1  0
M  END
>  <Name>  (825) 
Murranganon

>  <PubChem ID>  (825) 
5319956

>  <CDB ID>  (825) 
CDB0825

>  <Smiles>  (825) 
COC1=C([C@@H](O)C(=O)C(C)C)C2=C(C=CC(=O)O2)C=C1

>  <Chemical class>  (825) 
Simple prenylated coumarins

>  <Natural source>  (825) 
Saposhnikovia divaricata

>  <Molecular Formula>  (825) 
C15H16O5

>  <InChI-Key>  (825) 
QPXQLCIYAJVXPH-CQSZACIVSA-N

>  <Total Molweight>  (825) 
276.287

>  <cLogP>  (825) 
1.1909

>  <cLogS>  (825) 
-2.695

>  <H-Acceptors>  (825) 
5

>  <H-Donors>  (825) 
1

>  <Rotatable Bonds>  (825) 
4

>  <Polar Surface Area>  (825) 
72.83

$$$$
CDB0826
     RDKit          3D

 55 56  0  0  0  0  0  0  0  0999 V2000
    5.8012   -0.3454    0.5484 C   0  0  0  0  0  0  0  0  0  0  0  0
    4.7398    0.6465    1.0388 C   0  0  0  0  0  0  0  0  0  0  0  0
    5.3480    2.0553    1.0905 C   0  0  0  0  0  0  0  0  0  0  0  0
    3.4623    0.6491    0.1490 C   0  0  0  0  0  0  0  0  0  0  0  0
    2.7371   -0.7120    0.1361 C   0  0  0  0  0  0  0  0  0  0  0  0
    1.3758   -0.6548   -0.5363 C   0  0  0  0  0  0  0  0  0  0  0  0
    0.2681   -0.0380    0.0791 C   0  0  0  0  0  0  0  0  0  0  0  0
   -0.9731    0.0618   -0.5733 C   0  0  0  0  0  0  0  0  0  0  0  0
   -1.0743   -0.4959   -1.8580 C   0  0  0  0  0  0  0  0  0  0  0  0
   -0.0014   -1.1321   -2.4834 C   0  0  0  0  0  0  0  0  0  0  0  0
    1.2221   -1.2096   -1.8182 C   0  0  0  0  0  0  0  0  0  0  0  0
   -0.1775   -1.6847   -3.8174 C   0  0  0  0  0  0  0  0  0  0  0  0
   -1.3591   -1.5742   -4.4311 C   0  0  0  0  0  0  0  0  0  0  0  0
   -2.5108   -0.9067   -3.8043 C   0  0  0  0  0  0  0  0  0  0  0  0
   -3.5871   -0.8281   -4.3836 O   0  0  0  0  0  0  0  0  0  0  0  0
   -2.3124   -0.3847   -2.5338 O   0  0  0  0  0  0  0  0  0  0  0  0
   -2.1602    0.7633    0.0615 C   0  0  0  0  0  0  0  0  0  0  0  0
   -3.3070   -0.1957    0.4517 C   0  0  0  0  0  0  0  0  0  0  0  0
   -4.5313    0.5276    1.0846 C   0  0  0  0  0  0  0  0  0  0  0  0
   -5.0994    1.6323    0.1935 C   0  0  0  0  0  0  0  0  0  0  0  0
   -5.6413   -0.4785    1.4205 C   0  0  0  0  0  0  0  0  0  0  0  0
   -4.1207    1.1277    2.3216 O   0  0  0  0  0  0  0  0  0  0  0  0
   -2.8164   -1.1385    1.4282 O   0  0  0  0  0  0  0  0  0  0  0  0
    0.4465    0.5679    1.2955 O   0  0  0  0  0  0  0  0  0  0  0  0
    0.1906   -0.3266    2.3800 C   0  0  0  0  0  0  0  0  0  0  0  0
    3.8076    1.0154   -1.1953 O   0  0  0  0  0  0  0  0  0  0  0  0
    4.3756    0.2775    2.3768 O   0  0  0  0  0  0  0  0  0  0  0  0
    5.4426   -1.3778    0.6158 H   0  0  0  0  0  0  0  0  0  0  0  0
    6.1039   -0.1443   -0.4839 H   0  0  0  0  0  0  0  0  0  0  0  0
    6.6958   -0.2989    1.1807 H   0  0  0  0  0  0  0  0  0  0  0  0
    6.2096    2.0859    1.7676 H   0  0  0  0  0  0  0  0  0  0  0  0
    5.6764    2.3964    0.1036 H   0  0  0  0  0  0  0  0  0  0  0  0
    4.6225    2.7759    1.4849 H   0  0  0  0  0  0  0  0  0  0  0  0
    2.7858    1.4218    0.5341 H   0  0  0  0  0  0  0  0  0  0  0  0
    3.3515   -1.4502   -0.3943 H   0  0  0  0  0  0  0  0  0  0  0  0
    2.6054   -1.1006    1.1518 H   0  0  0  0  0  0  0  0  0  0  0  0
    2.0730   -1.6874   -2.3014 H   0  0  0  0  0  0  0  0  0  0  0  0
    0.6583   -2.1801   -4.3000 H   0  0  0  0  0  0  0  0  0  0  0  0
   -1.5274   -1.9723   -5.4244 H   0  0  0  0  0  0  0  0  0  0  0  0
   -2.5119    1.5161   -0.6535 H   0  0  0  0  0  0  0  0  0  0  0  0
   -1.8345    1.3215    0.9460 H   0  0  0  0  0  0  0  0  0  0  0  0
   -3.6473   -0.7737   -0.4146 H   0  0  0  0  0  0  0  0  0  0  0  0
   -5.3526    1.2545   -0.8022 H   0  0  0  0  0  0  0  0  0  0  0  0
   -6.0044    2.0629    0.6382 H   0  0  0  0  0  0  0  0  0  0  0  0
   -4.3985    2.4669    0.0896 H   0  0  0  0  0  0  0  0  0  0  0  0
   -5.2959   -1.2343    2.1344 H   0  0  0  0  0  0  0  0  0  0  0  0
   -6.4892    0.0240    1.9005 H   0  0  0  0  0  0  0  0  0  0  0  0
   -6.0048   -0.9881    0.5222 H   0  0  0  0  0  0  0  0  0  0  0  0
   -3.6118    0.4306    2.7822 H   0  0  0  0  0  0  0  0  0  0  0  0
   -2.1786   -1.7097    0.9637 H   0  0  0  0  0  0  0  0  0  0  0  0
    0.1421   -1.3801    2.0801 H   0  0  0  0  0  0  0  0  0  0  0  0
    0.9965   -0.2120    3.1111 H   0  0  0  0  0  0  0  0  0  0  0  0
   -0.7489   -0.0407    2.8616 H   0  0  0  0  0  0  0  0  0  0  0  0
    2.9685    1.2187   -1.6468 H   0  0  0  0  0  0  0  0  0  0  0  0
    5.1710    0.3560    2.9321 H   0  0  0  0  0  0  0  0  0  0  0  0
  1  2  1  0
  2  3  1  0
  2  4  1  0
  4  5  1  0
  5  6  1  0
  6  7  2  0
  7  8  1  0
  8  9  2  0
  9 10  1  0
 10 11  2  0
 10 12  1  0
 12 13  2  0
 13 14  1  0
 14 15  2  0
 14 16  1  0
  8 17  1  0
 17 18  1  0
 18 19  1  0
 19 20  1  0
 19 21  1  0
 19 22  1  0
 18 23  1  0
  7 24  1  0
 24 25  1  0
  4 26  1  0
  2 27  1  0
 11  6  1  0
 16  9  1  0
  1 28  1  0
  1 29  1  0
  1 30  1  0
  3 31  1  0
  3 32  1  0
  3 33  1  0
  4 34  1  0
  5 35  1  0
  5 36  1  0
 11 37  1  0
 12 38  1  0
 13 39  1  0
 17 40  1  0
 17 41  1  0
 18 42  1  0
 20 43  1  0
 20 44  1  0
 20 45  1  0
 21 46  1  0
 21 47  1  0
 21 48  1  0
 22 49  1  0
 23 50  1  0
 25 51  1  0
 25 52  1  0
 25 53  1  0
 26 54  1  0
 27 55  1  0
M  END
>  <Name>  (826) 
7-Methoxy-6,8-Bis-(2,3-Dihydroxy-3-Methylbutyl)-Coumarin

>  <PubChem ID>  (826) 
132277201

>  <CDB ID>  (826) 
CDB0826

>  <Smiles>  (826) 
CC(C)(C(CC1=C(C(=C2C(=C1)C=CC(=O)O2)CC(C(C)(C)O)O)OC)O)O

>  <Chemical class>  (826) 
Simple prenylated coumarins

>  <Natural source>  (826) 
Sophora interrupta

>  <Molecular Formula>  (826) 
C20H28O7

>  <InChI-Key>  (826) 
FEMJDPKPHJOXKQ-UHFFFAOYSA-N

>  <Total Molweight>  (826) 
380.435

>  <cLogP>  (826) 
1.438

>  <cLogS>  (826) 
-3.096

>  <H-Acceptors>  (826) 
7

>  <H-Donors>  (826) 
4

>  <Rotatable Bonds>  (826) 
7

>  <Polar Surface Area>  (826) 
116.45

$$$$
CDB0827
     RDKit          3D

 61 62  0  0  0  0  0  0  0  0999 V2000
    7.1681   -0.5383   -0.4271 C   0  0  0  0  0  0  0  0  0  0  0  0
    6.2936   -1.4079   -1.3171 C   0  0  0  0  0  0  0  0  0  0  0  0
    4.8755   -1.6044   -0.7768 C   0  0  0  0  0  0  0  0  0  0  0  0
    4.0563   -0.3099   -0.7372 C   0  0  0  0  0  0  0  0  0  0  0  0
    2.6084   -0.5847   -0.2904 C   0  0  0  0  0  0  0  0  0  0  0  0
    1.6604    0.6010   -0.1977 C   0  0  0  0  0  0  0  0  0  0  0  0
    2.0587    1.8502   -0.4900 C   0  0  0  0  0  0  0  0  0  0  0  0
    1.1982    3.0311   -0.4111 C   0  0  0  0  0  0  0  0  0  0  0  0
    1.6185    4.1461   -0.6914 O   0  0  0  0  0  0  0  0  0  0  0  0
   -0.1013    2.8085   -0.0133 O   0  0  0  0  0  0  0  0  0  0  0  0
   -0.5980    1.5207    0.2808 C   0  0  0  0  0  0  0  0  0  0  0  0
   -1.9454    1.4366    0.6585 C   0  0  0  0  0  0  0  0  0  0  0  0
   -2.8627    2.6057    0.6424 C   0  0  0  0  0  0  0  0  0  0  0  0
   -3.6429    2.7192    1.5910 O   0  0  0  0  0  0  0  0  0  0  0  0
   -2.9416    3.4980   -0.5947 C   0  0  1  0  0  0  0  0  0  0  0  0
   -4.1251    3.0163   -1.4375 C   0  0  0  0  0  0  0  0  0  0  0  0
   -3.1321    4.9718   -0.2048 C   0  0  0  0  0  0  0  0  0  0  0  0
   -1.9059    5.5663    0.4739 C   0  0  0  0  0  0  0  0  0  0  0  0
   -2.4560    0.2059    1.0892 C   0  0  0  0  0  0  0  0  0  0  0  0
   -3.7484    0.0908    1.5405 O   0  0  0  0  0  0  0  0  0  0  0  0
   -1.6643   -0.9501    1.0700 C   0  0  0  0  0  0  0  0  0  0  0  0
   -2.2364   -2.2717    1.5537 C   0  0  0  0  0  0  0  0  0  0  0  0
   -2.7005   -3.1409    0.4136 C   0  0  0  0  0  0  0  0  0  0  0  0
   -2.3298   -4.4016    0.1119 C   0  0  0  0  0  0  0  0  0  0  0  0
   -1.3507   -5.2392    0.8882 C   0  0  0  0  0  0  0  0  0  0  0  0
   -2.9234   -5.1037   -1.0837 C   0  0  0  0  0  0  0  0  0  0  0  0
   -0.3320   -0.8410    0.6059 C   0  0  0  0  0  0  0  0  0  0  0  0
    0.4260   -1.9818    0.5284 O   0  0  0  0  0  0  0  0  0  0  0  0
    0.2457    0.3969    0.2358 C   0  0  0  0  0  0  0  0  0  0  0  0
    7.1996   -0.9284    0.5951 H   0  0  0  0  0  0  0  0  0  0  0  0
    8.1923   -0.5171   -0.8131 H   0  0  0  0  0  0  0  0  0  0  0  0
    6.8063    0.4934   -0.3937 H   0  0  0  0  0  0  0  0  0  0  0  0
    6.7669   -2.3923   -1.4147 H   0  0  0  0  0  0  0  0  0  0  0  0
    6.2531   -0.9751   -2.3234 H   0  0  0  0  0  0  0  0  0  0  0  0
    4.9223   -2.0437    0.2272 H   0  0  0  0  0  0  0  0  0  0  0  0
    4.3638   -2.3336   -1.4171 H   0  0  0  0  0  0  0  0  0  0  0  0
    4.5232    0.3975   -0.0425 H   0  0  0  0  0  0  0  0  0  0  0  0
    4.0584    0.1466   -1.7345 H   0  0  0  0  0  0  0  0  0  0  0  0
    2.1871   -1.3072   -1.0008 H   0  0  0  0  0  0  0  0  0  0  0  0
    2.6655   -1.0601    0.6970 H   0  0  0  0  0  0  0  0  0  0  0  0
    3.0672    2.0853   -0.8086 H   0  0  0  0  0  0  0  0  0  0  0  0
   -2.0443    3.4038   -1.2106 H   0  0  0  0  0  0  0  0  0  0  0  0
   -4.2145    3.6049   -2.3565 H   0  0  0  0  0  0  0  0  0  0  0  0
   -5.0688    3.0985   -0.8867 H   0  0  0  0  0  0  0  0  0  0  0  0
   -3.9999    1.9654   -1.7212 H   0  0  0  0  0  0  0  0  0  0  0  0
   -3.3470    5.5623   -1.1039 H   0  0  0  0  0  0  0  0  0  0  0  0
   -3.9962    5.0855    0.4612 H   0  0  0  0  0  0  0  0  0  0  0  0
   -2.0867    6.6170    0.7224 H   0  0  0  0  0  0  0  0  0  0  0  0
   -1.6648    5.0391    1.4018 H   0  0  0  0  0  0  0  0  0  0  0  0
   -1.0346    5.5233   -0.1866 H   0  0  0  0  0  0  0  0  0  0  0  0
   -4.0712    0.9876    1.7888 H   0  0  0  0  0  0  0  0  0  0  0  0
   -1.4883   -2.7616    2.1843 H   0  0  0  0  0  0  0  0  0  0  0  0
   -3.0870   -2.1046    2.2252 H   0  0  0  0  0  0  0  0  0  0  0  0
   -3.4491   -2.6592   -0.2184 H   0  0  0  0  0  0  0  0  0  0  0  0
   -0.4987   -5.5044    0.2533 H   0  0  0  0  0  0  0  0  0  0  0  0
   -1.8311   -6.1642    1.2243 H   0  0  0  0  0  0  0  0  0  0  0  0
   -0.9555   -4.7400    1.7748 H   0  0  0  0  0  0  0  0  0  0  0  0
   -3.4566   -6.0062   -0.7674 H   0  0  0  0  0  0  0  0  0  0  0  0
   -3.6330   -4.4720   -1.6283 H   0  0  0  0  0  0  0  0  0  0  0  0
   -2.1323   -5.3931   -1.7832 H   0  0  0  0  0  0  0  0  0  0  0  0
   -0.1591   -2.7375    0.3476 H   0  0  0  0  0  0  0  0  0  0  0  0
  1  2  1  0
  2  3  1  0
  3  4  1  0
  4  5  1  0
  5  6  1  0
  6  7  2  0
  7  8  1  0
  8  9  2  0
  8 10  1  0
 10 11  1  0
 11 12  2  0
 12 13  1  0
 13 14  2  0
 13 15  1  0
 15 16  1  0
 15 17  1  0
 17 18  1  0
 12 19  1  0
 19 20  1  0
 19 21  2  0
 21 22  1  0
 22 23  1  0
 23 24  2  3
 24 25  1  0
 24 26  1  0
 21 27  1  0
 27 28  1  0
 27 29  2  0
 29  6  1  0
 29 11  1  0
  1 30  1  0
  1 31  1  0
  1 32  1  0
  2 33  1  0
  2 34  1  0
  3 35  1  0
  3 36  1  0
  4 37  1  0
  4 38  1  0
  5 39  1  0
  5 40  1  0
  7 41  1  0
 15 42  1  6
 16 43  1  0
 16 44  1  0
 16 45  1  0
 17 46  1  0
 17 47  1  0
 18 48  1  0
 18 49  1  0
 18 50  1  0
 20 51  1  0
 22 52  1  0
 22 53  1  0
 23 54  1  0
 25 55  1  0
 25 56  1  0
 25 57  1  0
 26 58  1  0
 26 59  1  0
 26 60  1  0
 28 61  1  0
M  END
>  <Name>  (827) 
Mammea C/Bb

>  <PubChem ID>  (827) 
53324072

>  <CDB ID>  (827) 
CDB0827

>  <Smiles>  (827) 
CCCCCC1=CC(=O)OC2=C(C(=O)[C@@H](C)CC)C(O)=C(CC=C(C)C)C(O)=C12

>  <Chemical class>  (827) 
Simple prenylated coumarins

>  <Natural source>  (827) 
Mammea usambarensis

>  <Molecular Formula>  (827) 
C24H32O5

>  <InChI-Key>  (827) 
HHPBGHOULCFTMR-HNNXBMFYSA-N

>  <Total Molweight>  (827) 
400.513

>  <cLogP>  (827) 
5.7226

>  <cLogS>  (827) 
-4.91

>  <H-Acceptors>  (827) 
5

>  <H-Donors>  (827) 
2

>  <Rotatable Bonds>  (827) 
9

>  <Polar Surface Area>  (827) 
83.83

$$$$
CDB0828
     RDKit          3D

 61 62  0  0  0  0  0  0  0  0999 V2000
    7.5458   -0.3388    0.6932 C   0  0  0  0  0  0  0  0  0  0  0  0
    6.3068   -1.0383    1.2291 C   0  0  0  0  0  0  0  0  0  0  0  0
    5.0375   -0.2458    0.9173 C   0  0  0  0  0  0  0  0  0  0  0  0
    3.7917   -0.9544    1.4581 C   0  0  0  0  0  0  0  0  0  0  0  0
    2.5165   -0.1488    1.1504 C   0  0  0  0  0  0  0  0  0  0  0  0
    1.1851   -0.7780    1.5313 C   0  0  0  0  0  0  0  0  0  0  0  0
    1.1194   -1.8264    2.3693 C   0  0  0  0  0  0  0  0  0  0  0  0
   -0.1065   -2.5713    2.6696 C   0  0  0  0  0  0  0  0  0  0  0  0
   -0.1181   -3.4579    3.5139 O   0  0  0  0  0  0  0  0  0  0  0  0
   -1.2097   -2.2428    1.9150 O   0  0  0  0  0  0  0  0  0  0  0  0
   -1.2239   -1.1261    1.0442 C   0  0  0  0  0  0  0  0  0  0  0  0
   -2.4423   -0.8988    0.3677 C   0  0  0  0  0  0  0  0  0  0  0  0
   -3.6054   -1.8599    0.4991 C   0  0  0  0  0  0  0  0  0  0  0  0
   -3.4475   -3.0759   -0.3768 C   0  0  0  0  0  0  0  0  0  0  0  0
   -4.1523   -3.4134   -1.4751 C   0  0  0  0  0  0  0  0  0  0  0  0
   -5.2638   -2.6009   -2.0797 C   0  0  0  0  0  0  0  0  0  0  0  0
   -3.8498   -4.6901   -2.2161 C   0  0  0  0  0  0  0  0  0  0  0  0
   -2.5171    0.2143   -0.4694 C   0  0  0  0  0  0  0  0  0  0  0  0
   -3.6590    0.4121   -1.2022 O   0  0  0  0  0  0  0  0  0  0  0  0
   -1.4506    1.1176   -0.5452 C   0  0  0  0  0  0  0  0  0  0  0  0
   -1.6437    2.3264   -1.3733 C   0  0  0  0  0  0  0  0  0  0  0  0
   -1.8723    2.1344   -2.5708 O   0  0  0  0  0  0  0  0  0  0  0  0
   -1.7872    3.7144   -0.7382 C   0  0  1  0  0  0  0  0  0  0  0  0
   -1.5290    3.8344    0.7616 C   0  0  0  0  0  0  0  0  0  0  0  0
   -1.0357    4.7806   -1.5547 C   0  0  0  0  0  0  0  0  0  0  0  0
    0.4798    4.6433   -1.5467 C   0  0  0  0  0  0  0  0  0  0  0  0
   -0.2468    0.8572    0.1289 C   0  0  0  0  0  0  0  0  0  0  0  0
    0.7460    1.7907    0.0028 O   0  0  0  0  0  0  0  0  0  0  0  0
   -0.0838   -0.3093    0.9028 C   0  0  0  0  0  0  0  0  0  0  0  0
    8.4416   -0.9224    0.9272 H   0  0  0  0  0  0  0  0  0  0  0  0
    7.4910   -0.2218   -0.3939 H   0  0  0  0  0  0  0  0  0  0  0  0
    7.6604    0.6537    1.1405 H   0  0  0  0  0  0  0  0  0  0  0  0
    6.2392   -2.0390    0.7868 H   0  0  0  0  0  0  0  0  0  0  0  0
    6.4080   -1.1685    2.3128 H   0  0  0  0  0  0  0  0  0  0  0  0
    4.9444   -0.1146   -0.1676 H   0  0  0  0  0  0  0  0  0  0  0  0
    5.1113    0.7555    1.3589 H   0  0  0  0  0  0  0  0  0  0  0  0
    3.9014   -1.0823    2.5418 H   0  0  0  0  0  0  0  0  0  0  0  0
    3.7194   -1.9532    1.0103 H   0  0  0  0  0  0  0  0  0  0  0  0
    2.5182    0.0361    0.0690 H   0  0  0  0  0  0  0  0  0  0  0  0
    2.6077    0.8159    1.6628 H   0  0  0  0  0  0  0  0  0  0  0  0
    1.9894   -2.2339    2.8706 H   0  0  0  0  0  0  0  0  0  0  0  0
   -4.5504   -1.3384    0.3198 H   0  0  0  0  0  0  0  0  0  0  0  0
   -3.6877   -2.1917    1.5423 H   0  0  0  0  0  0  0  0  0  0  0  0
   -2.6663   -3.7581   -0.0409 H   0  0  0  0  0  0  0  0  0  0  0  0
   -6.1862   -3.1906   -2.1088 H   0  0  0  0  0  0  0  0  0  0  0  0
   -5.0049   -2.3163   -3.1051 H   0  0  0  0  0  0  0  0  0  0  0  0
   -5.4838   -1.6825   -1.5331 H   0  0  0  0  0  0  0  0  0  0  0  0
   -3.0335   -5.2561   -1.7551 H   0  0  0  0  0  0  0  0  0  0  0  0
   -4.7335   -5.3365   -2.2335 H   0  0  0  0  0  0  0  0  0  0  0  0
   -3.5590   -4.4694   -3.2484 H   0  0  0  0  0  0  0  0  0  0  0  0
   -3.4127    0.9004   -2.0181 H   0  0  0  0  0  0  0  0  0  0  0  0
   -2.8590    3.9352   -0.8581 H   0  0  0  0  0  0  0  0  0  0  0  0
   -0.4764    3.7095    1.0227 H   0  0  0  0  0  0  0  0  0  0  0  0
   -2.1067    3.0946    1.3254 H   0  0  0  0  0  0  0  0  0  0  0  0
   -1.8340    4.8244    1.1192 H   0  0  0  0  0  0  0  0  0  0  0  0
   -1.2998    5.7755   -1.1750 H   0  0  0  0  0  0  0  0  0  0  0  0
   -1.3768    4.7499   -2.5971 H   0  0  0  0  0  0  0  0  0  0  0  0
    0.7951    3.6880   -1.9762 H   0  0  0  0  0  0  0  0  0  0  0  0
    0.8884    4.7257   -0.5358 H   0  0  0  0  0  0  0  0  0  0  0  0
    0.9282    5.4400   -2.1494 H   0  0  0  0  0  0  0  0  0  0  0  0
    1.1428    1.9230    0.8803 H   0  0  0  0  0  0  0  0  0  0  0  0
  1  2  1  0
  2  3  1  0
  3  4  1  0
  4  5  1  0
  5  6  1  0
  6  7  2  0
  7  8  1  0
  8  9  2  0
  8 10  1  0
 10 11  1  0
 11 12  1  0
 12 13  1  0
 13 14  1  0
 14 15  2  3
 15 16  1  0
 15 17  1  0
 12 18  2  0
 18 19  1  0
 18 20  1  0
 20 21  1  0
 21 22  2  0
 21 23  1  0
 23 24  1  0
 23 25  1  0
 25 26  1  0
 20 27  2  0
 27 28  1  0
 27 29  1  0
 29  6  1  0
 29 11  2  0
  1 30  1  0
  1 31  1  0
  1 32  1  0
  2 33  1  0
  2 34  1  0
  3 35  1  0
  3 36  1  0
  4 37  1  0
  4 38  1  0
  5 39  1  0
  5 40  1  0
  7 41  1  0
 13 42  1  0
 13 43  1  0
 14 44  1  0
 16 45  1  0
 16 46  1  0
 16 47  1  0
 17 48  1  0
 17 49  1  0
 17 50  1  0
 19 51  1  0
 23 52  1  1
 24 53  1  0
 24 54  1  0
 24 55  1  0
 25 56  1  0
 25 57  1  0
 26 58  1  0
 26 59  1  0
 26 60  1  0
 28 61  1  0
M  END
>  <Name>  (828) 
Mammea C/Ab

>  <PubChem ID>  (828) 
70698200

>  <CDB ID>  (828) 
CDB0828

>  <Smiles>  (828) 
CCCCCC1=CC(=O)OC2=C(CC=C(C)C)C(O)=C(C(=O)[C@@H](C)CC)C(O)=C12

>  <Chemical class>  (828) 
Simple prenylated coumarins

>  <Natural source>  (828) 
Mammea usambarensis

>  <Molecular Formula>  (828) 
C24H32O5

>  <InChI-Key>  (828) 
BZYSFJMTCUKKOB-HNNXBMFYSA-N

>  <Total Molweight>  (828) 
400.513

>  <cLogP>  (828) 
5.7226

>  <cLogS>  (828) 
-4.91

>  <H-Acceptors>  (828) 
5

>  <H-Donors>  (828) 
2

>  <Rotatable Bonds>  (828) 
9

>  <Polar Surface Area>  (828) 
83.83

$$$$
CDB0829
     RDKit          3D

 61 62  0  0  0  0  0  0  0  0999 V2000
    7.2391    1.6331    0.8571 C   0  0  0  0  0  0  0  0  0  0  0  0
    6.9952    0.5355   -0.1671 C   0  0  0  0  0  0  0  0  0  0  0  0
    5.6037   -0.0936   -0.0696 C   0  0  0  0  0  0  0  0  0  0  0  0
    4.4716    0.8812   -0.4108 C   0  0  0  0  0  0  0  0  0  0  0  0
    3.1066    0.1687   -0.4032 C   0  0  0  0  0  0  0  0  0  0  0  0
    1.8749    1.0015   -0.7216 C   0  0  0  0  0  0  0  0  0  0  0  0
    1.9557    2.3128   -1.0030 C   0  0  0  0  0  0  0  0  0  0  0  0
    0.8066    3.1662   -1.3145 C   0  0  0  0  0  0  0  0  0  0  0  0
    0.9486    4.3584   -1.5572 O   0  0  0  0  0  0  0  0  0  0  0  0
   -0.4222    2.5474   -1.3245 O   0  0  0  0  0  0  0  0  0  0  0  0
   -0.5858    1.1733   -1.0290 C   0  0  0  0  0  0  0  0  0  0  0  0
    0.5253    0.3664   -0.7203 C   0  0  0  0  0  0  0  0  0  0  0  0
    0.2496   -0.9852   -0.4324 C   0  0  0  0  0  0  0  0  0  0  0  0
   -1.0743   -1.4770   -0.4153 C   0  0  0  0  0  0  0  0  0  0  0  0
   -2.1383   -0.6516   -0.7860 C   0  0  0  0  0  0  0  0  0  0  0  0
   -1.9141    0.6951   -1.0840 C   0  0  0  0  0  0  0  0  0  0  0  0
   -3.0628    1.6251   -1.4214 C   0  0  0  0  0  0  0  0  0  0  0  0
   -3.6438    2.2719   -0.1916 C   0  0  0  0  0  0  0  0  0  0  0  0
   -3.6196    3.5723    0.1629 C   0  0  0  0  0  0  0  0  0  0  0  0
   -4.2646    4.0267    1.4468 C   0  0  0  0  0  0  0  0  0  0  0  0
   -2.9743    4.6803   -0.6239 C   0  0  0  0  0  0  0  0  0  0  0  0
   -3.4175   -1.1254   -0.8978 O   0  0  0  0  0  0  0  0  0  0  0  0
   -1.2942   -2.8707    0.0355 C   0  0  0  0  0  0  0  0  0  0  0  0
   -0.5839   -3.7378   -0.4699 O   0  0  0  0  0  0  0  0  0  0  0  0
   -2.2534   -3.1218    1.1909 C   0  0  0  0  0  0  0  0  0  0  0  0
   -2.9998   -4.4655    1.1571 C   0  0  0  0  0  0  0  0  0  0  0  0
   -3.8197   -4.6472   -0.1192 C   0  0  0  0  0  0  0  0  0  0  0  0
   -2.0819   -5.6657    1.3922 C   0  0  0  0  0  0  0  0  0  0  0  0
    1.2831   -1.8500   -0.1549 O   0  0  0  0  0  0  0  0  0  0  0  0
    8.2784    1.9729    0.8026 H   0  0  0  0  0  0  0  0  0  0  0  0
    6.5981    2.5008    0.6760 H   0  0  0  0  0  0  0  0  0  0  0  0
    7.0541    1.2709    1.8733 H   0  0  0  0  0  0  0  0  0  0  0  0
    7.1543    0.9355   -1.1752 H   0  0  0  0  0  0  0  0  0  0  0  0
    7.7431   -0.2523   -0.0173 H   0  0  0  0  0  0  0  0  0  0  0  0
    5.4529   -0.4977    0.9388 H   0  0  0  0  0  0  0  0  0  0  0  0
    5.5645   -0.9451   -0.7603 H   0  0  0  0  0  0  0  0  0  0  0  0
    4.6591    1.3169   -1.3998 H   0  0  0  0  0  0  0  0  0  0  0  0
    4.4595    1.6981    0.3195 H   0  0  0  0  0  0  0  0  0  0  0  0
    3.1678   -0.6483   -1.1332 H   0  0  0  0  0  0  0  0  0  0  0  0
    2.9805   -0.2675    0.5958 H   0  0  0  0  0  0  0  0  0  0  0  0
    2.8954    2.8514   -1.0213 H   0  0  0  0  0  0  0  0  0  0  0  0
   -3.8611    1.0669   -1.9268 H   0  0  0  0  0  0  0  0  0  0  0  0
   -2.7426    2.3539   -2.1716 H   0  0  0  0  0  0  0  0  0  0  0  0
   -4.1509    1.5679    0.4690 H   0  0  0  0  0  0  0  0  0  0  0  0
   -4.7181    3.1983    2.0012 H   0  0  0  0  0  0  0  0  0  0  0  0
   -3.5204    4.4947    2.0995 H   0  0  0  0  0  0  0  0  0  0  0  0
   -5.0530    4.7570    1.2372 H   0  0  0  0  0  0  0  0  0  0  0  0
   -3.7112    5.4586   -0.8490 H   0  0  0  0  0  0  0  0  0  0  0  0
   -2.5513    4.3543   -1.5755 H   0  0  0  0  0  0  0  0  0  0  0  0
   -2.1644    5.1314   -0.0409 H   0  0  0  0  0  0  0  0  0  0  0  0
   -3.3929   -2.0162   -1.2913 H   0  0  0  0  0  0  0  0  0  0  0  0
   -1.6607   -3.0550    2.1121 H   0  0  0  0  0  0  0  0  0  0  0  0
   -2.9934   -2.3176    1.2479 H   0  0  0  0  0  0  0  0  0  0  0  0
   -3.7085   -4.4471    1.9964 H   0  0  0  0  0  0  0  0  0  0  0  0
   -3.1836   -4.6982   -1.0085 H   0  0  0  0  0  0  0  0  0  0  0  0
   -4.4031   -5.5732   -0.0736 H   0  0  0  0  0  0  0  0  0  0  0  0
   -4.5243   -3.8194   -0.2485 H   0  0  0  0  0  0  0  0  0  0  0  0
   -1.4162   -5.8508    0.5446 H   0  0  0  0  0  0  0  0  0  0  0  0
   -1.4676   -5.5194    2.2867 H   0  0  0  0  0  0  0  0  0  0  0  0
   -2.6756   -6.5741    1.5432 H   0  0  0  0  0  0  0  0  0  0  0  0
    0.9812   -2.7722   -0.3134 H   0  0  0  0  0  0  0  0  0  0  0  0
  1  2  1  0
  2  3  1  0
  3  4  1  0
  4  5  1  0
  5  6  1  0
  6  7  2  0
  7  8  1  0
  8  9  2  0
  8 10  1  0
 10 11  1  0
 11 12  2  0
 12 13  1  0
 13 14  2  0
 14 15  1  0
 15 16  2  0
 16 17  1  0
 17 18  1  0
 18 19  2  3
 19 20  1  0
 19 21  1  0
 15 22  1  0
 14 23  1  0
 23 24  2  0
 23 25  1  0
 25 26  1  0
 26 27  1  0
 26 28  1  0
 13 29  1  0
 12  6  1  0
 16 11  1  0
  1 30  1  0
  1 31  1  0
  1 32  1  0
  2 33  1  0
  2 34  1  0
  3 35  1  0
  3 36  1  0
  4 37  1  0
  4 38  1  0
  5 39  1  0
  5 40  1  0
  7 41  1  0
 17 42  1  0
 17 43  1  0
 18 44  1  0
 20 45  1  0
 20 46  1  0
 20 47  1  0
 21 48  1  0
 21 49  1  0
 21 50  1  0
 22 51  1  0
 25 52  1  0
 25 53  1  0
 26 54  1  0
 27 55  1  0
 27 56  1  0
 27 57  1  0
 28 58  1  0
 28 59  1  0
 28 60  1  0
 29 61  1  0
M  END
>  <Name>  (829) 
Mammea C/Aa

>  <PubChem ID>  (829) 
51040689

>  <CDB ID>  (829) 
CDB0829

>  <Smiles>  (829) 
CCCCCC1=CC(=O)OC2=C1C(=C(C(=C2CC=C(C)C)O)C(=O)CC(C)C)O

>  <Chemical class>  (829) 
Simple prenylated coumarins

>  <Natural source>  (829) 
Mammea usambarensis

>  <Molecular Formula>  (829) 
C24H32O5

>  <InChI-Key>  (829) 
XLQSXCISSFNQTD-UHFFFAOYSA-N

>  <Total Molweight>  (829) 
400.513

>  <cLogP>  (829) 
5.7226

>  <cLogS>  (829) 
-4.91

>  <H-Acceptors>  (829) 
5

>  <H-Donors>  (829) 
2

>  <Rotatable Bonds>  (829) 
9

>  <Polar Surface Area>  (829) 
83.83

$$$$
CDB0830
     RDKit          3D

 56 58  0  0  0  0  0  0  0  0999 V2000
   -5.1957   -1.4049   -0.9868 C   0  0  0  0  0  0  0  0  0  0  0  0
   -3.7645   -1.7546   -0.6032 C   0  0  0  0  0  0  0  0  0  0  0  0
   -2.8896   -2.1625   -1.8020 C   0  0  2  0  0  0  0  0  0  0  0  0
   -3.3994   -3.4587   -2.4472 C   0  0  0  0  0  0  0  0  0  0  0  0
   -1.4259   -2.3408   -1.3734 C   0  0  0  0  0  0  0  0  0  0  0  0
   -0.8231   -3.4080   -1.5242 O   0  0  0  0  0  0  0  0  0  0  0  0
   -0.6757   -1.2484   -0.6803 C   0  0  0  0  0  0  0  0  0  0  0  0
   -0.8170    0.1128   -0.9948 C   0  0  0  0  0  0  0  0  0  0  0  0
   -1.6451    0.4400   -2.0907 O   0  0  0  0  0  0  0  0  0  0  0  0
   -1.8827    1.7347   -2.4998 C   0  0  0  0  0  0  0  0  0  0  0  0
   -2.5956    2.0019   -3.4577 O   0  0  0  0  0  0  0  0  0  0  0  0
   -1.2469    2.7841   -1.7065 C   0  0  0  0  0  0  0  0  0  0  0  0
   -0.4256    2.5399   -0.6717 C   0  0  0  0  0  0  0  0  0  0  0  0
    0.0405    3.7664    0.0077 C   0  0  0  0  0  0  0  0  0  0  0  0
   -0.4940    4.1269    1.2515 C   0  0  0  0  0  0  0  0  0  0  0  0
   -0.0437    5.2762    1.9027 C   0  0  0  0  0  0  0  0  0  0  0  0
    0.9382    6.0728    1.3154 C   0  0  0  0  0  0  0  0  0  0  0  0
    1.4723    5.7237    0.0760 C   0  0  0  0  0  0  0  0  0  0  0  0
    1.0258    4.5746   -0.5783 C   0  0  0  0  0  0  0  0  0  0  0  0
   -0.1407    1.1296   -0.2953 C   0  0  0  0  0  0  0  0  0  0  0  0
    0.7435    0.7217    0.7266 C   0  0  0  0  0  0  0  0  0  0  0  0
    1.4991    1.6052    1.4549 O   0  0  0  0  0  0  0  0  0  0  0  0
    0.9231   -0.6379    1.0642 C   0  0  0  0  0  0  0  0  0  0  0  0
    1.9010   -1.0471    2.1518 C   0  0  0  0  0  0  0  0  0  0  0  0
    3.3190   -1.1349    1.6460 C   0  0  0  0  0  0  0  0  0  0  0  0
    4.0899   -2.2302    1.4943 C   0  0  0  0  0  0  0  0  0  0  0  0
    5.4994   -2.1088    0.9769 C   0  0  0  0  0  0  0  0  0  0  0  0
    3.6638   -3.6410    1.7930 C   0  0  0  0  0  0  0  0  0  0  0  0
    0.2174   -1.6094    0.3400 C   0  0  0  0  0  0  0  0  0  0  0  0
    0.4298   -2.9262    0.6703 O   0  0  0  0  0  0  0  0  0  0  0  0
   -5.7405   -2.2789   -1.3546 H   0  0  0  0  0  0  0  0  0  0  0  0
   -5.7352   -1.0257   -0.1128 H   0  0  0  0  0  0  0  0  0  0  0  0
   -5.2164   -0.6297   -1.7593 H   0  0  0  0  0  0  0  0  0  0  0  0
   -3.3370   -0.8820   -0.0976 H   0  0  0  0  0  0  0  0  0  0  0  0
   -3.7752   -2.5597    0.1423 H   0  0  0  0  0  0  0  0  0  0  0  0
   -2.9320   -1.4016   -2.5858 H   0  0  0  0  0  0  0  0  0  0  0  0
   -4.3969   -3.3262   -2.8768 H   0  0  0  0  0  0  0  0  0  0  0  0
   -2.7378   -3.7767   -3.2609 H   0  0  0  0  0  0  0  0  0  0  0  0
   -3.4449   -4.2752   -1.7180 H   0  0  0  0  0  0  0  0  0  0  0  0
   -1.5102    3.7908   -2.0187 H   0  0  0  0  0  0  0  0  0  0  0  0
   -1.2560    3.5119    1.7261 H   0  0  0  0  0  0  0  0  0  0  0  0
   -0.4581    5.5495    2.8703 H   0  0  0  0  0  0  0  0  0  0  0  0
    1.2867    6.9682    1.8249 H   0  0  0  0  0  0  0  0  0  0  0  0
    2.2362    6.3487   -0.3808 H   0  0  0  0  0  0  0  0  0  0  0  0
    1.4543    4.3156   -1.5446 H   0  0  0  0  0  0  0  0  0  0  0  0
    1.6569    2.4146    0.9444 H   0  0  0  0  0  0  0  0  0  0  0  0
    1.8691   -0.3144    2.9687 H   0  0  0  0  0  0  0  0  0  0  0  0
    1.5698   -1.9743    2.6286 H   0  0  0  0  0  0  0  0  0  0  0  0
    3.7480   -0.1652    1.3945 H   0  0  0  0  0  0  0  0  0  0  0  0
    5.6134   -2.6803    0.0499 H   0  0  0  0  0  0  0  0  0  0  0  0
    5.7768   -1.0712    0.7633 H   0  0  0  0  0  0  0  0  0  0  0  0
    6.2088   -2.4969    1.7151 H   0  0  0  0  0  0  0  0  0  0  0  0
    4.3335   -4.0850    2.5373 H   0  0  0  0  0  0  0  0  0  0  0  0
    3.7112   -4.2475    0.8824 H   0  0  0  0  0  0  0  0  0  0  0  0
    2.6484   -3.7198    2.1846 H   0  0  0  0  0  0  0  0  0  0  0  0
    0.1294   -3.4858   -0.0817 H   0  0  0  0  0  0  0  0  0  0  0  0
  1  2  1  0
  2  3  1  0
  3  4  1  0
  3  5  1  0
  5  6  2  0
  5  7  1  0
  7  8  2  0
  8  9  1  0
  9 10  1  0
 10 11  2  0
 10 12  1  0
 12 13  2  0
 13 14  1  0
 14 15  2  0
 15 16  1  0
 16 17  2  0
 17 18  1  0
 18 19  2  0
 13 20  1  0
 20 21  2  0
 21 22  1  0
 21 23  1  0
 23 24  1  0
 24 25  1  0
 25 26  2  3
 26 27  1  0
 26 28  1  0
 23 29  2  0
 29 30  1  0
 29  7  1  0
 20  8  1  0
 19 14  1  0
  1 31  1  0
  1 32  1  0
  1 33  1  0
  2 34  1  0
  2 35  1  0
  3 36  1  6
  4 37  1  0
  4 38  1  0
  4 39  1  0
 12 40  1  0
 15 41  1  0
 16 42  1  0
 17 43  1  0
 18 44  1  0
 19 45  1  0
 22 46  1  0
 24 47  1  0
 24 48  1  0
 25 49  1  0
 27 50  1  0
 27 51  1  0
 27 52  1  0
 28 53  1  0
 28 54  1  0
 28 55  1  0
 30 56  1  0
M  END
>  <Name>  (830) 
Mammea A/Bb

>  <PubChem ID>  (830) 
53322741

>  <CDB ID>  (830) 
CDB0830

>  <Smiles>  (830) 
CC[C@H](C)C(=O)C1=C2OC(=O)C=C(C3=CC=CC=C3)C2=C(O)C(CC=C(C)C)=C1O

>  <Chemical class>  (830) 
Simple prenylated coumarins

>  <Natural source>  (830) 
Mammea usambarensis

>  <Molecular Formula>  (830) 
C25H26O5

>  <InChI-Key>  (830) 
ZZRRSYITGMMRPP-HNNXBMFYSA-N

>  <Total Molweight>  (830) 
406.476

>  <cLogP>  (830) 
5.3249

>  <cLogS>  (830) 
-5.306

>  <H-Acceptors>  (830) 
5

>  <H-Donors>  (830) 
2

>  <Rotatable Bonds>  (830) 
6

>  <Polar Surface Area>  (830) 
83.83

$$$$
CDB0831
     RDKit          3D

 53 55  0  0  0  0  0  0  0  0999 V2000
    2.2996   -5.6438    0.5440 C   0  0  0  0  0  0  0  0  0  0  0  0
    2.0339   -4.6578   -0.5815 C   0  0  0  0  0  0  0  0  0  0  0  0
    2.2338   -3.2173   -0.1216 C   0  0  0  0  0  0  0  0  0  0  0  0
    1.9303   -2.2420   -1.2410 C   0  0  0  0  0  0  0  0  0  0  0  0
    2.3691   -2.3655   -2.3814 O   0  0  0  0  0  0  0  0  0  0  0  0
    1.1109   -1.0574   -0.9121 C   0  0  0  0  0  0  0  0  0  0  0  0
   -0.2300   -1.2041   -0.5551 C   0  0  0  0  0  0  0  0  0  0  0  0
   -1.0173   -0.0737   -0.2843 C   0  0  0  0  0  0  0  0  0  0  0  0
   -0.4076    1.2052   -0.3477 C   0  0  0  0  0  0  0  0  0  0  0  0
    0.9428    1.3828   -0.7285 C   0  0  0  0  0  0  0  0  0  0  0  0
    1.6813    0.2195   -0.9853 C   0  0  0  0  0  0  0  0  0  0  0  0
    3.0630    0.2815   -1.2782 O   0  0  0  0  0  0  0  0  0  0  0  0
    3.7482    1.4741   -1.3510 C   0  0  0  0  0  0  0  0  0  0  0  0
    4.9574    1.5387   -1.5322 O   0  0  0  0  0  0  0  0  0  0  0  0
    2.9447    2.6882   -1.1996 C   0  0  0  0  0  0  0  0  0  0  0  0
    1.6337    2.6862   -0.9047 C   0  0  0  0  0  0  0  0  0  0  0  0
    1.0339    4.0357   -0.8764 C   0  0  0  0  0  0  0  0  0  0  0  0
    1.2721    4.9002    0.2020 C   0  0  0  0  0  0  0  0  0  0  0  0
    0.6860    6.1665    0.2296 C   0  0  0  0  0  0  0  0  0  0  0  0
   -0.1381    6.5768   -0.8174 C   0  0  0  0  0  0  0  0  0  0  0  0
   -0.3764    5.7245   -1.8946 C   0  0  0  0  0  0  0  0  0  0  0  0
    0.2083    4.4578   -1.9267 C   0  0  0  0  0  0  0  0  0  0  0  0
   -1.2235    2.2503    0.0058 O   0  0  0  0  0  0  0  0  0  0  0  0
   -2.4912   -0.2047    0.0648 C   0  0  0  0  0  0  0  0  0  0  0  0
   -2.7005   -0.6414    1.4916 C   0  0  0  0  0  0  0  0  0  0  0  0
   -3.4043   -1.6948    1.9531 C   0  0  0  0  0  0  0  0  0  0  0  0
   -3.4885   -1.9638    3.4348 C   0  0  0  0  0  0  0  0  0  0  0  0
   -4.1724   -2.6760    1.1103 C   0  0  0  0  0  0  0  0  0  0  0  0
   -0.7400   -2.4725   -0.4808 O   0  0  0  0  0  0  0  0  0  0  0  0
    2.1546   -6.6698    0.1914 H   0  0  0  0  0  0  0  0  0  0  0  0
    1.6179   -5.4738    1.3835 H   0  0  0  0  0  0  0  0  0  0  0  0
    3.3269   -5.5525    0.9109 H   0  0  0  0  0  0  0  0  0  0  0  0
    1.0105   -4.7944   -0.9504 H   0  0  0  0  0  0  0  0  0  0  0  0
    2.7028   -4.8806   -1.4213 H   0  0  0  0  0  0  0  0  0  0  0  0
    3.2732   -3.0518    0.1852 H   0  0  0  0  0  0  0  0  0  0  0  0
    1.6039   -3.0088    0.7498 H   0  0  0  0  0  0  0  0  0  0  0  0
    3.5052    3.6043   -1.3626 H   0  0  0  0  0  0  0  0  0  0  0  0
    1.9130    4.5952    1.0269 H   0  0  0  0  0  0  0  0  0  0  0  0
    0.8740    6.8357    1.0659 H   0  0  0  0  0  0  0  0  0  0  0  0
   -0.5929    7.5645   -0.7962 H   0  0  0  0  0  0  0  0  0  0  0  0
   -1.0177    6.0471   -2.7116 H   0  0  0  0  0  0  0  0  0  0  0  0
    0.0110    3.8026   -2.7732 H   0  0  0  0  0  0  0  0  0  0  0  0
   -0.7011    3.0383    0.2216 H   0  0  0  0  0  0  0  0  0  0  0  0
   -2.9522   -0.8840   -0.6590 H   0  0  0  0  0  0  0  0  0  0  0  0
   -3.0190    0.7444   -0.0827 H   0  0  0  0  0  0  0  0  0  0  0  0
   -2.2165    0.0117    2.2197 H   0  0  0  0  0  0  0  0  0  0  0  0
   -4.5303   -1.9224    3.7692 H   0  0  0  0  0  0  0  0  0  0  0  0
   -3.0884   -2.9575    3.6618 H   0  0  0  0  0  0  0  0  0  0  0  0
   -2.9211   -1.2354    4.0236 H   0  0  0  0  0  0  0  0  0  0  0  0
   -4.1538   -2.4438    0.0439 H   0  0  0  0  0  0  0  0  0  0  0  0
   -3.7590   -3.6822    1.2362 H   0  0  0  0  0  0  0  0  0  0  0  0
   -5.2232   -2.6942    1.4184 H   0  0  0  0  0  0  0  0  0  0  0  0
   -1.5770   -2.4656    0.0131 H   0  0  0  0  0  0  0  0  0  0  0  0
  1  2  1  0
  2  3  1  0
  3  4  1  0
  4  5  2  0
  4  6  1  0
  6  7  1  0
  7  8  2  0
  8  9  1  0
  9 10  2  0
 10 11  1  0
 11 12  1  0
 12 13  1  0
 13 14  2  0
 13 15  1  0
 15 16  2  0
 16 17  1  0
 17 18  2  0
 18 19  1  0
 19 20  2  0
 20 21  1  0
 21 22  2  0
  9 23  1  0
  8 24  1  0
 24 25  1  0
 25 26  2  3
 26 27  1  0
 26 28  1  0
  7 29  1  0
 11  6  2  0
 16 10  1  0
 22 17  1  0
  1 30  1  0
  1 31  1  0
  1 32  1  0
  2 33  1  0
  2 34  1  0
  3 35  1  0
  3 36  1  0
 15 37  1  0
 18 38  1  0
 19 39  1  0
 20 40  1  0
 21 41  1  0
 22 42  1  0
 23 43  1  0
 24 44  1  0
 24 45  1  0
 25 46  1  0
 27 47  1  0
 27 48  1  0
 27 49  1  0
 28 50  1  0
 28 51  1  0
 28 52  1  0
 29 53  1  0
M  END
>  <Name>  (831) 
Mammea A/Bc

>  <PubChem ID>  (831) 
15407042

>  <CDB ID>  (831) 
CDB0831

>  <Smiles>  (831) 
CCCC(=O)C1=C(C(=C(C2=C1OC(=O)C=C2C3=CC=CC=C3)O)CC=C(C)C)O

>  <Chemical class>  (831) 
Simple prenylated coumarins

>  <Natural source>  (831) 
Mammea usambarensis

>  <Molecular Formula>  (831) 
C24H24O5

>  <InChI-Key>  (831) 
GZUILQDOVCYOST-UHFFFAOYSA-N

>  <Total Molweight>  (831) 
392.45

>  <cLogP>  (831) 
5.1066

>  <cLogS>  (831) 
-5.146

>  <H-Acceptors>  (831) 
5

>  <H-Donors>  (831) 
2

>  <Rotatable Bonds>  (831) 
6

>  <Polar Surface Area>  (831) 
83.83

$$$$
CDB0832
     RDKit          3D

 53 55  0  0  0  0  0  0  0  0999 V2000
   -2.6430    4.3889    0.7910 C   0  0  0  0  0  0  0  0  0  0  0  0
   -1.9805    4.7996   -0.5168 C   0  0  0  0  0  0  0  0  0  0  0  0
   -0.8405    3.8614   -0.9163 C   0  0  0  0  0  0  0  0  0  0  0  0
   -1.3351    2.4860   -1.3296 C   0  0  0  0  0  0  0  0  0  0  0  0
   -2.4465    2.3081   -1.8342 O   0  0  0  0  0  0  0  0  0  0  0  0
   -0.4909    1.2820   -1.0719 C   0  0  0  0  0  0  0  0  0  0  0  0
   -1.1416    0.0764   -0.7237 C   0  0  0  0  0  0  0  0  0  0  0  0
   -0.4127   -1.0831   -0.4094 C   0  0  0  0  0  0  0  0  0  0  0  0
    0.9834   -0.9974   -0.4969 C   0  0  0  0  0  0  0  0  0  0  0  0
    1.6743    0.1716   -0.8887 C   0  0  0  0  0  0  0  0  0  0  0  0
    0.9111    1.3181   -1.1627 C   0  0  0  0  0  0  0  0  0  0  0  0
    1.5049    2.4880   -1.5546 O   0  0  0  0  0  0  0  0  0  0  0  0
    3.1885    0.1514   -0.9694 C   0  0  0  0  0  0  0  0  0  0  0  0
    3.8281    0.6206    0.3105 C   0  0  0  0  0  0  0  0  0  0  0  0
    4.5926   -0.0879    1.1659 C   0  0  0  0  0  0  0  0  0  0  0  0
    4.9678   -1.5376    1.0128 C   0  0  0  0  0  0  0  0  0  0  0  0
    5.1451    0.5558    2.4124 C   0  0  0  0  0  0  0  0  0  0  0  0
    1.7858   -2.1231   -0.1890 O   0  0  0  0  0  0  0  0  0  0  0  0
    1.2553   -3.3299    0.2175 C   0  0  0  0  0  0  0  0  0  0  0  0
    1.9571   -4.2933    0.4994 O   0  0  0  0  0  0  0  0  0  0  0  0
   -0.2040   -3.4053    0.2879 C   0  0  0  0  0  0  0  0  0  0  0  0
   -1.0156   -2.3746   -0.0011 C   0  0  0  0  0  0  0  0  0  0  0  0
   -2.4530   -2.6893    0.1372 C   0  0  0  0  0  0  0  0  0  0  0  0
   -3.1001   -2.5157    1.3679 C   0  0  0  0  0  0  0  0  0  0  0  0
   -4.4505   -2.8429    1.5045 C   0  0  0  0  0  0  0  0  0  0  0  0
   -5.1602   -3.3475    0.4154 C   0  0  0  0  0  0  0  0  0  0  0  0
   -4.5230   -3.5244   -0.8122 C   0  0  0  0  0  0  0  0  0  0  0  0
   -3.1727   -3.1982   -0.9522 C   0  0  0  0  0  0  0  0  0  0  0  0
   -2.5144    0.0236   -0.6710 O   0  0  0  0  0  0  0  0  0  0  0  0
   -3.4237    5.1076    1.0593 H   0  0  0  0  0  0  0  0  0  0  0  0
   -1.9142    4.3608    1.6074 H   0  0  0  0  0  0  0  0  0  0  0  0
   -3.1083    3.4016    0.7120 H   0  0  0  0  0  0  0  0  0  0  0  0
   -1.5775    5.8126   -0.4005 H   0  0  0  0  0  0  0  0  0  0  0  0
   -2.7372    4.8461   -1.3084 H   0  0  0  0  0  0  0  0  0  0  0  0
   -0.3128    4.2945   -1.7731 H   0  0  0  0  0  0  0  0  0  0  0  0
   -0.1426    3.7750   -0.0767 H   0  0  0  0  0  0  0  0  0  0  0  0
    2.4698    2.4446   -1.4644 H   0  0  0  0  0  0  0  0  0  0  0  0
    3.5283    0.7934   -1.7910 H   0  0  0  0  0  0  0  0  0  0  0  0
    3.5345   -0.8404   -1.2740 H   0  0  0  0  0  0  0  0  0  0  0  0
    3.6355    1.6649    0.5554 H   0  0  0  0  0  0  0  0  0  0  0  0
    6.0578   -1.6444    1.0141 H   0  0  0  0  0  0  0  0  0  0  0  0
    4.5640   -2.1191    1.8484 H   0  0  0  0  0  0  0  0  0  0  0  0
    4.6019   -1.9922    0.0909 H   0  0  0  0  0  0  0  0  0  0  0  0
    6.2394    0.5166    2.4059 H   0  0  0  0  0  0  0  0  0  0  0  0
    4.8511    1.6066    2.5043 H   0  0  0  0  0  0  0  0  0  0  0  0
    4.7826    0.0308    3.3023 H   0  0  0  0  0  0  0  0  0  0  0  0
   -0.5849   -4.3744    0.5952 H   0  0  0  0  0  0  0  0  0  0  0  0
   -2.5589   -2.1164    2.2219 H   0  0  0  0  0  0  0  0  0  0  0  0
   -4.9495   -2.6993    2.4592 H   0  0  0  0  0  0  0  0  0  0  0  0
   -6.2126   -3.5976    0.5219 H   0  0  0  0  0  0  0  0  0  0  0  0
   -5.0784   -3.9116   -1.6622 H   0  0  0  0  0  0  0  0  0  0  0  0
   -2.6883   -3.3340   -1.9159 H   0  0  0  0  0  0  0  0  0  0  0  0
   -2.8854    0.7927   -1.1593 H   0  0  0  0  0  0  0  0  0  0  0  0
  1  2  1  0
  2  3  1  0
  3  4  1  0
  4  5  2  0
  4  6  1  0
  6  7  2  0
  7  8  1  0
  8  9  2  0
  9 10  1  0
 10 11  2  0
 11 12  1  0
 10 13  1  0
 13 14  1  0
 14 15  2  3
 15 16  1  0
 15 17  1  0
  9 18  1  0
 18 19  1  0
 19 20  2  0
 19 21  1  0
 21 22  2  0
 22 23  1  0
 23 24  2  0
 24 25  1  0
 25 26  2  0
 26 27  1  0
 27 28  2  0
  7 29  1  0
 11  6  1  0
 22  8  1  0
 28 23  1  0
  1 30  1  0
  1 31  1  0
  1 32  1  0
  2 33  1  0
  2 34  1  0
  3 35  1  0
  3 36  1  0
 12 37  1  0
 13 38  1  0
 13 39  1  0
 14 40  1  0
 16 41  1  0
 16 42  1  0
 16 43  1  0
 17 44  1  0
 17 45  1  0
 17 46  1  0
 21 47  1  0
 24 48  1  0
 25 49  1  0
 26 50  1  0
 27 51  1  0
 28 52  1  0
 29 53  1  0
M  END
>  <Name>  (832) 
Mammea A/Ac

>  <PubChem ID>  (832) 
44546137

>  <CDB ID>  (832) 
CDB0832

>  <Smiles>  (832) 
CCCC(=O)C1=C(C2=C(C(=C1O)CC=C(C)C)OC(=O)C=C2C3=CC=CC=C3)O

>  <Chemical class>  (832) 
Simple prenylated coumarins

>  <Natural source>  (832) 
Mammea usambarensis

>  <Molecular Formula>  (832) 
C24H24O5

>  <InChI-Key>  (832) 
NWWAVRDKPXDXSM-UHFFFAOYSA-N

>  <Total Molweight>  (832) 
392.45

>  <cLogP>  (832) 
5.1066

>  <cLogS>  (832) 
-5.146

>  <H-Acceptors>  (832) 
5

>  <H-Donors>  (832) 
2

>  <Rotatable Bonds>  (832) 
6

>  <Polar Surface Area>  (832) 
83.83

$$$$
CDB0833
     RDKit          3D

 50 52  0  0  0  0  0  0  0  0999 V2000
    5.9617    0.8979   -1.9486 C   0  0  0  0  0  0  0  0  0  0  0  0
    5.2561   -0.0937   -1.0338 C   0  0  0  0  0  0  0  0  0  0  0  0
    3.8231    0.3636   -0.7125 C   0  0  0  0  0  0  0  0  0  0  0  0
    2.9586   -0.5797    0.1102 C   0  0  0  0  0  0  0  0  0  0  0  0
    3.4899   -1.6160    0.7808 C   0  0  0  0  0  0  0  0  0  0  0  0
    2.7062   -2.6407    1.4765 C   0  0  0  0  0  0  0  0  0  0  0  0
    3.2505   -3.5091    2.1461 O   0  0  0  0  0  0  0  0  0  0  0  0
    1.3437   -2.5863    1.2899 O   0  0  0  0  0  0  0  0  0  0  0  0
    0.7141   -1.5015    0.6314 C   0  0  0  0  0  0  0  0  0  0  0  0
   -0.6932   -1.5521    0.5656 C   0  0  0  0  0  0  0  0  0  0  0  0
   -1.4561   -2.6729    1.1097 C   0  0  0  0  0  0  0  0  0  0  0  0
   -2.7698   -2.7198    0.8699 C   0  0  0  0  0  0  0  0  0  0  0  0
   -3.4940   -1.6548    0.0839 C   0  0  0  0  0  0  0  0  0  0  0  0
   -2.7431   -0.4384   -0.0907 O   0  0  0  0  0  0  0  0  0  0  0  0
   -1.3771   -0.4897   -0.0253 C   0  0  0  0  0  0  0  0  0  0  0  0
   -0.6599    0.6173   -0.4923 C   0  0  0  0  0  0  0  0  0  0  0  0
    0.7446    0.6550   -0.3970 C   0  0  0  0  0  0  0  0  0  0  0  0
    1.4744   -0.4364    0.1146 C   0  0  0  0  0  0  0  0  0  0  0  0
    1.3640    1.8107   -0.7949 O   0  0  0  0  0  0  0  0  0  0  0  0
   -1.4059    1.7415   -1.1090 C   0  0  0  0  0  0  0  0  0  0  0  0
   -2.0173    1.5403   -2.1578 O   0  0  0  0  0  0  0  0  0  0  0  0
   -1.3453    3.1216   -0.4738 C   0  0  0  0  0  0  0  0  0  0  0  0
   -1.4441    3.1567    1.0499 C   0  0  0  0  0  0  0  0  0  0  0  0
   -2.8441    2.8371    1.5537 C   0  0  0  0  0  0  0  0  0  0  0  0
   -4.7675   -1.2496    0.8357 C   0  0  0  0  0  0  0  0  0  0  0  0
   -3.8617   -2.1821   -1.3074 C   0  0  0  0  0  0  0  0  0  0  0  0
    6.9812    0.5598   -2.1587 H   0  0  0  0  0  0  0  0  0  0  0  0
    6.0205    1.8872   -1.4836 H   0  0  0  0  0  0  0  0  0  0  0  0
    5.4337    0.9967   -2.9024 H   0  0  0  0  0  0  0  0  0  0  0  0
    5.2398   -1.0760   -1.5206 H   0  0  0  0  0  0  0  0  0  0  0  0
    5.8406   -0.1877   -0.1113 H   0  0  0  0  0  0  0  0  0  0  0  0
    3.3280    0.5400   -1.6757 H   0  0  0  0  0  0  0  0  0  0  0  0
    3.8961    1.3221   -0.1856 H   0  0  0  0  0  0  0  0  0  0  0  0
    4.5569   -1.7985    0.8313 H   0  0  0  0  0  0  0  0  0  0  0  0
   -0.9544   -3.4572    1.6659 H   0  0  0  0  0  0  0  0  0  0  0  0
   -3.3474   -3.5666    1.2314 H   0  0  0  0  0  0  0  0  0  0  0  0
    2.0196    2.0443   -0.1158 H   0  0  0  0  0  0  0  0  0  0  0  0
   -2.1652    3.7150   -0.8977 H   0  0  0  0  0  0  0  0  0  0  0  0
   -0.4162    3.6020   -0.7984 H   0  0  0  0  0  0  0  0  0  0  0  0
   -1.1819    4.1658    1.3902 H   0  0  0  0  0  0  0  0  0  0  0  0
   -0.7248    2.4745    1.5143 H   0  0  0  0  0  0  0  0  0  0  0  0
   -3.5770    3.5412    1.1468 H   0  0  0  0  0  0  0  0  0  0  0  0
   -2.8768    2.9108    2.6454 H   0  0  0  0  0  0  0  0  0  0  0  0
   -3.1518    1.8260    1.2770 H   0  0  0  0  0  0  0  0  0  0  0  0
   -5.3071   -0.4638    0.2938 H   0  0  0  0  0  0  0  0  0  0  0  0
   -5.4473   -2.0966    0.9796 H   0  0  0  0  0  0  0  0  0  0  0  0
   -4.5241   -0.8318    1.8202 H   0  0  0  0  0  0  0  0  0  0  0  0
   -4.4991   -3.0713   -1.2520 H   0  0  0  0  0  0  0  0  0  0  0  0
   -4.3875   -1.4150   -1.8879 H   0  0  0  0  0  0  0  0  0  0  0  0
   -2.9635   -2.4396   -1.8812 H   0  0  0  0  0  0  0  0  0  0  0  0
  1  2  1  0
  2  3  1  0
  3  4  1  0
  4  5  2  0
  5  6  1  0
  6  7  2  0
  6  8  1  0
  8  9  1  0
  9 10  2  0
 10 11  1  0
 11 12  2  0
 12 13  1  0
 13 14  1  0
 14 15  1  0
 15 16  2  0
 16 17  1  0
 17 18  2  0
 17 19  1  0
 16 20  1  0
 20 21  2  0
 20 22  1  0
 22 23  1  0
 23 24  1  0
 13 25  1  0
 13 26  1  0
 18  4  1  0
 18  9  1  0
 15 10  1  0
  1 27  1  0
  1 28  1  0
  1 29  1  0
  2 30  1  0
  2 31  1  0
  3 32  1  0
  3 33  1  0
  5 34  1  0
 11 35  1  0
 12 36  1  0
 19 37  1  0
 22 38  1  0
 22 39  1  0
 23 40  1  0
 23 41  1  0
 24 42  1  0
 24 43  1  0
 24 44  1  0
 25 45  1  0
 25 46  1  0
 25 47  1  0
 26 48  1  0
 26 49  1  0
 26 50  1  0
M  END
>  <Name>  (833) 
Mammea B/Ac Cyclo D

>  <PubChem ID>  (833) 
70684457

>  <CDB ID>  (833) 
CDB0833

>  <Smiles>  (833) 
CCCC1=CC(=O)OC2=C3C=CC(OC3=C(C(=C12)O)C(=O)CCC)(C)C

>  <Chemical class>  (833) 
Simple prenylated coumarins

>  <Natural source>  (833) 
Mammea usambarensis

>  <Molecular Formula>  (833) 
C21H24O5

>  <InChI-Key>  (833) 
SMRSMFDNXPPPCA-UHFFFAOYSA-N

>  <Total Molweight>  (833) 
356.417

>  <cLogP>  (833) 
3.9454

>  <cLogS>  (833) 
-4.826

>  <H-Acceptors>  (833) 
5

>  <H-Donors>  (833) 
1

>  <Rotatable Bonds>  (833) 
5

>  <Polar Surface Area>  (833) 
72.83

$$$$
CDB0834
     RDKit          3D

 53 55  0  0  0  0  0  0  0  0999 V2000
    6.5638   -1.4102   -1.4587 C   0  0  0  0  0  0  0  0  0  0  0  0
    5.5764   -0.2708   -1.6695 C   0  0  0  0  0  0  0  0  0  0  0  0
    4.1972   -0.6098   -1.0799 C   0  0  0  0  0  0  0  0  0  0  0  0
    3.0972    0.4304   -1.2157 C   0  0  0  0  0  0  0  0  0  0  0  0
    3.3095    1.6146   -1.8143 C   0  0  0  0  0  0  0  0  0  0  0  0
    2.2943    2.6598   -1.9727 C   0  0  0  0  0  0  0  0  0  0  0  0
    2.5694    3.7309   -2.4987 O   0  0  0  0  0  0  0  0  0  0  0  0
    1.0401    2.3658   -1.4882 O   0  0  0  0  0  0  0  0  0  0  0  0
    0.7500    1.1359   -0.8595 C   0  0  0  0  0  0  0  0  0  0  0  0
    1.7329    0.1538   -0.6787 C   0  0  0  0  0  0  0  0  0  0  0  0
    1.3273   -1.0226   -0.0021 C   0  0  0  0  0  0  0  0  0  0  0  0
    0.0127   -1.1997    0.4980 C   0  0  0  0  0  0  0  0  0  0  0  0
   -0.3794   -2.4410    1.2542 C   0  0  0  0  0  0  0  0  0  0  0  0
   -1.6986   -2.2723    2.0024 C   0  0  0  0  0  0  0  0  0  0  0  0
   -2.7382   -1.5498    1.1218 C   0  0  0  0  0  0  0  0  0  0  0  0
   -2.2378   -0.2725    0.6905 O   0  0  0  0  0  0  0  0  0  0  0  0
   -0.9382   -0.1992    0.2678 C   0  0  0  0  0  0  0  0  0  0  0  0
   -0.5635    0.9640   -0.4071 C   0  0  0  0  0  0  0  0  0  0  0  0
   -1.5719    2.0056   -0.6794 C   0  0  0  0  0  0  0  0  0  0  0  0
   -1.9906    2.1421   -1.8248 O   0  0  0  0  0  0  0  0  0  0  0  0
   -2.0054    2.8689    0.4869 C   0  0  0  0  0  0  0  0  0  0  0  0
   -3.5195    3.0542    0.4961 C   0  0  0  0  0  0  0  0  0  0  0  0
   -3.9732    3.8740    1.6925 C   0  0  0  0  0  0  0  0  0  0  0  0
   -3.9920   -1.2448    1.9577 C   0  0  0  0  0  0  0  0  0  0  0  0
   -3.1775   -2.3524   -0.1144 C   0  0  0  0  0  0  0  0  0  0  0  0
   -2.1500   -3.5402    2.4780 O   0  0  0  0  0  0  0  0  0  0  0  0
    2.2461   -2.0231    0.1907 O   0  0  0  0  0  0  0  0  0  0  0  0
    7.5382   -1.1503   -1.8841 H   0  0  0  0  0  0  0  0  0  0  0  0
    6.7027   -1.6170   -0.3927 H   0  0  0  0  0  0  0  0  0  0  0  0
    6.2147   -2.3270   -1.9445 H   0  0  0  0  0  0  0  0  0  0  0  0
    5.9786    0.6329   -1.1965 H   0  0  0  0  0  0  0  0  0  0  0  0
    5.4908   -0.0756   -2.7450 H   0  0  0  0  0  0  0  0  0  0  0  0
    3.8607   -1.5338   -1.5670 H   0  0  0  0  0  0  0  0  0  0  0  0
    4.3480   -0.8160   -0.0126 H   0  0  0  0  0  0  0  0  0  0  0  0
    4.2690    1.8976   -2.2303 H   0  0  0  0  0  0  0  0  0  0  0  0
    0.3927   -2.7020    1.9891 H   0  0  0  0  0  0  0  0  0  0  0  0
   -0.4428   -3.2842    0.5550 H   0  0  0  0  0  0  0  0  0  0  0  0
   -1.5014   -1.6527    2.8877 H   0  0  0  0  0  0  0  0  0  0  0  0
   -1.6785    2.4183    1.4308 H   0  0  0  0  0  0  0  0  0  0  0  0
   -1.4976    3.8355    0.3916 H   0  0  0  0  0  0  0  0  0  0  0  0
   -3.8426    3.5520   -0.4259 H   0  0  0  0  0  0  0  0  0  0  0  0
   -4.0161    2.0768    0.5163 H   0  0  0  0  0  0  0  0  0  0  0  0
   -3.5167    4.8689    1.6819 H   0  0  0  0  0  0  0  0  0  0  0  0
   -5.0604    3.9985    1.6764 H   0  0  0  0  0  0  0  0  0  0  0  0
   -3.7020    3.3808    2.6314 H   0  0  0  0  0  0  0  0  0  0  0  0
   -3.7388   -0.6249    2.8257 H   0  0  0  0  0  0  0  0  0  0  0  0
   -4.4798   -2.1580    2.3135 H   0  0  0  0  0  0  0  0  0  0  0  0
   -4.7198   -0.6691    1.3737 H   0  0  0  0  0  0  0  0  0  0  0  0
   -3.8815   -1.7690   -0.7199 H   0  0  0  0  0  0  0  0  0  0  0  0
   -3.6642   -3.2933    0.1606 H   0  0  0  0  0  0  0  0  0  0  0  0
   -2.3346   -2.5823   -0.7738 H   0  0  0  0  0  0  0  0  0  0  0  0
   -2.3083   -4.1276    1.7195 H   0  0  0  0  0  0  0  0  0  0  0  0
    1.8086   -2.8704    0.3652 H   0  0  0  0  0  0  0  0  0  0  0  0
  1  2  1  0
  2  3  1  0
  3  4  1  0
  4  5  2  0
  5  6  1  0
  6  7  2  0
  6  8  1  0
  8  9  1  0
  9 10  1  0
 10 11  2  0
 11 12  1  0
 12 13  1  0
 13 14  1  0
 14 15  1  0
 15 16  1  0
 16 17  1  0
 17 18  1  0
 18 19  1  0
 19 20  2  0
 19 21  1  0
 21 22  1  0
 22 23  1  0
 15 24  1  0
 15 25  1  0
 14 26  1  0
 11 27  1  0
 10  4  1  0
 18  9  2  0
 17 12  2  0
  1 28  1  0
  1 29  1  0
  1 30  1  0
  2 31  1  0
  2 32  1  0
  3 33  1  0
  3 34  1  0
  5 35  1  0
 13 36  1  0
 13 37  1  0
 14 38  1  0
 21 39  1  0
 21 40  1  0
 22 41  1  0
 22 42  1  0
 23 43  1  0
 23 44  1  0
 23 45  1  0
 24 46  1  0
 24 47  1  0
 24 48  1  0
 25 49  1  0
 25 50  1  0
 25 51  1  0
 26 52  1  0
 27 53  1  0
M  END
>  <Name>  (834) 
Mammea B/Bc Cyclo E

>  <PubChem ID>  (834) 
102504551

>  <CDB ID>  (834) 
CDB0834

>  <Smiles>  (834) 
CCCC1=CC(=O)OC2=C1C(=C3CC(C(OC3=C2C(=O)CCC)(C)C)O)O

>  <Chemical class>  (834) 
Simple prenylated coumarins

>  <Natural source>  (834) 
Mammea usambarensis

>  <Molecular Formula>  (834) 
C21H26O6

>  <InChI-Key>  (834) 
JKOPHYFSGRCMOF-CQSZACIVSA-N

>  <Total Molweight>  (834) 
374.431

>  <cLogP>  (834) 
3.2571

>  <cLogS>  (834) 
-4.292

>  <H-Acceptors>  (834) 
6

>  <H-Donors>  (834) 
2

>  <Rotatable Bonds>  (834) 
5

>  <Polar Surface Area>  (834) 
93.06

$$$$
CDB0835
     RDKit          3D

 61 62  0  0  0  0  0  0  0  0999 V2000
    4.5831   -4.2312   -1.0313 C   0  0  0  0  0  0  0  0  0  0  0  0
    4.3379   -2.9007   -0.3348 C   0  0  0  0  0  0  0  0  0  0  0  0
    3.0122   -2.8589    0.4459 C   0  0  0  0  0  0  0  0  0  0  0  0
    3.0102   -3.8074    1.6426 C   0  0  0  0  0  0  0  0  0  0  0  0
    2.7894   -1.4325    0.9399 C   0  0  0  0  0  0  0  0  0  0  0  0
    3.6057   -0.8515    1.6597 O   0  0  0  0  0  0  0  0  0  0  0  0
    1.6244   -0.6434    0.4559 C   0  0  0  0  0  0  0  0  0  0  0  0
    1.8389    0.6922    0.0954 C   0  0  0  0  0  0  0  0  0  0  0  0
    0.8024    1.4767   -0.4324 C   0  0  0  0  0  0  0  0  0  0  0  0
   -0.4854    0.8993   -0.5390 C   0  0  0  0  0  0  0  0  0  0  0  0
   -0.7586   -0.4323   -0.1412 C   0  0  0  0  0  0  0  0  0  0  0  0
    0.3299   -1.1739    0.3546 C   0  0  0  0  0  0  0  0  0  0  0  0
    0.1512   -2.4956    0.8186 O   0  0  0  0  0  0  0  0  0  0  0  0
   -1.0557   -3.1538    0.7534 C   0  0  0  0  0  0  0  0  0  0  0  0
   -1.1927   -4.3158    1.1119 O   0  0  0  0  0  0  0  0  0  0  0  0
   -2.1774   -2.3783    0.2302 C   0  0  0  0  0  0  0  0  0  0  0  0
   -2.0927   -1.1044   -0.1940 C   0  0  0  0  0  0  0  0  0  0  0  0
   -3.3468   -0.3764   -0.6837 C   0  0  0  0  0  0  0  0  0  0  0  0
   -3.4370   -0.4232   -2.2208 C   0  0  0  0  0  0  0  0  0  0  0  0
   -4.5621    0.4440   -2.7706 C   0  0  0  0  0  0  0  0  0  0  0  0
   -4.5208   -1.0553   -0.1593 O   0  0  0  0  0  0  0  0  0  0  0  0
   -5.4920   -0.2842    0.3988 C   0  0  0  0  0  0  0  0  0  0  0  0
   -5.4813    0.9345    0.4888 O   0  0  0  0  0  0  0  0  0  0  0  0
   -6.6070   -1.1551    0.8920 C   0  0  0  0  0  0  0  0  0  0  0  0
   -1.5069    1.6491   -1.0609 O   0  0  0  0  0  0  0  0  0  0  0  0
    1.0923    2.9077   -0.8499 C   0  0  0  0  0  0  0  0  0  0  0  0
    0.8149    3.8947    0.2558 C   0  0  0  0  0  0  0  0  0  0  0  0
    1.6893    4.7061    0.8846 C   0  0  0  0  0  0  0  0  0  0  0  0
    1.2242    5.6334    1.9784 C   0  0  0  0  0  0  0  0  0  0  0  0
    3.1663    4.7816    0.6084 C   0  0  0  0  0  0  0  0  0  0  0  0
    3.0761    1.2743    0.2317 O   0  0  0  0  0  0  0  0  0  0  0  0
    3.7526   -4.4852   -1.6974 H   0  0  0  0  0  0  0  0  0  0  0  0
    5.4954   -4.1767   -1.6339 H   0  0  0  0  0  0  0  0  0  0  0  0
    4.7105   -5.0439   -0.3102 H   0  0  0  0  0  0  0  0  0  0  0  0
    5.1813   -2.6836    0.3326 H   0  0  0  0  0  0  0  0  0  0  0  0
    4.3348   -2.1073   -1.0933 H   0  0  0  0  0  0  0  0  0  0  0  0
    2.2133   -3.1443   -0.2454 H   0  0  0  0  0  0  0  0  0  0  0  0
    3.0257   -4.8526    1.3191 H   0  0  0  0  0  0  0  0  0  0  0  0
    3.8801   -3.6373    2.2868 H   0  0  0  0  0  0  0  0  0  0  0  0
    2.1170   -3.6646    2.2599 H   0  0  0  0  0  0  0  0  0  0  0  0
   -3.1103   -2.9319    0.2143 H   0  0  0  0  0  0  0  0  0  0  0  0
   -3.3483    0.6474   -0.3055 H   0  0  0  0  0  0  0  0  0  0  0  0
   -3.6148   -1.4550   -2.5505 H   0  0  0  0  0  0  0  0  0  0  0  0
   -2.4961   -0.1002   -2.6798 H   0  0  0  0  0  0  0  0  0  0  0  0
   -5.5422    0.0817   -2.4468 H   0  0  0  0  0  0  0  0  0  0  0  0
   -4.4502    1.4833   -2.4463 H   0  0  0  0  0  0  0  0  0  0  0  0
   -4.5479    0.4273   -3.8651 H   0  0  0  0  0  0  0  0  0  0  0  0
   -7.3738   -0.5319    1.3609 H   0  0  0  0  0  0  0  0  0  0  0  0
   -7.0571   -1.6908    0.0525 H   0  0  0  0  0  0  0  0  0  0  0  0
   -6.2267   -1.8575    1.6381 H   0  0  0  0  0  0  0  0  0  0  0  0
   -1.3337    2.5964   -0.9378 H   0  0  0  0  0  0  0  0  0  0  0  0
    2.1127    2.9831   -1.2366 H   0  0  0  0  0  0  0  0  0  0  0  0
    0.4760    3.1716   -1.7185 H   0  0  0  0  0  0  0  0  0  0  0  0
   -0.2266    3.9439    0.5708 H   0  0  0  0  0  0  0  0  0  0  0  0
    1.7393    5.4015    2.9164 H   0  0  0  0  0  0  0  0  0  0  0  0
    1.4392    6.6731    1.7103 H   0  0  0  0  0  0  0  0  0  0  0  0
    0.1477    5.5541    2.1627 H   0  0  0  0  0  0  0  0  0  0  0  0
    3.7296    4.5215    1.5109 H   0  0  0  0  0  0  0  0  0  0  0  0
    3.5011    4.1137   -0.1867 H   0  0  0  0  0  0  0  0  0  0  0  0
    3.4403    5.8002    0.3137 H   0  0  0  0  0  0  0  0  0  0  0  0
    3.5990    0.7442    0.8760 H   0  0  0  0  0  0  0  0  0  0  0  0
  1  2  1  0
  2  3  1  0
  3  4  1  0
  3  5  1  0
  5  6  2  0
  5  7  1  0
  7  8  1  0
  8  9  2  0
  9 10  1  0
 10 11  2  0
 11 12  1  0
 12 13  1  0
 13 14  1  0
 14 15  2  0
 14 16  1  0
 16 17  2  0
 17 18  1  0
 18 19  1  0
 19 20  1  0
 18 21  1  0
 21 22  1  0
 22 23  2  0
 22 24  1  0
 10 25  1  0
  9 26  1  0
 26 27  1  0
 27 28  2  3
 28 29  1  0
 28 30  1  0
  8 31  1  0
 12  7  2  0
 17 11  1  0
  1 32  1  0
  1 33  1  0
  1 34  1  0
  2 35  1  0
  2 36  1  0
  3 37  1  0
  4 38  1  0
  4 39  1  0
  4 40  1  0
 16 41  1  0
 18 42  1  0
 19 43  1  0
 19 44  1  0
 20 45  1  0
 20 46  1  0
 20 47  1  0
 24 48  1  0
 24 49  1  0
 24 50  1  0
 25 51  1  0
 26 52  1  0
 26 53  1  0
 27 54  1  0
 29 55  1  0
 29 56  1  0
 29 57  1  0
 30 58  1  0
 30 59  1  0
 30 60  1  0
 31 61  1  0
M  END
>  <Name>  (835) 
Mammea E/Bb

>  <PubChem ID>  (835) 
50908588

>  <CDB ID>  (835) 
CDB0835

>  <Smiles>  (835) 
CCC(C)C(=O)C1=C(C(=C(C2=C1OC(=O)C=C2C(CC)OC(=O)C)O)CC=C(C)C)O

>  <Chemical class>  (835) 
Simple prenylated coumarins

>  <Natural source>  (835) 
Mammea usambarensis

>  <Molecular Formula>  (835) 
C24H30O7

>  <InChI-Key>  (835) 
CIJFRPODNXMJFU-UHFFFAOYSA-N

>  <Total Molweight>  (835) 
430.495

>  <cLogP>  (835) 
4.2766

>  <cLogS>  (835) 
-4.381

>  <H-Acceptors>  (835) 
7

>  <H-Donors>  (835) 
2

>  <Rotatable Bonds>  (835) 
9

>  <Polar Surface Area>  (835) 
110.13

$$$$
CDB0836
     RDKit          3D

 61 62  0  0  0  0  0  0  0  0999 V2000
    2.6209   -3.2105   -2.1751 C   0  0  0  0  0  0  0  0  0  0  0  0
    3.0848   -2.3253   -1.0221 C   0  0  0  0  0  0  0  0  0  0  0  0
    2.3342   -2.5607    0.3082 C   0  0  2  0  0  0  0  0  0  0  0  0
    2.4235   -3.9705    0.6497 O   0  0  0  0  0  0  0  0  0  0  0  0
    3.5736   -4.3762    1.2522 C   0  0  0  0  0  0  0  0  0  0  0  0
    3.5068   -5.8458    1.5353 C   0  0  0  0  0  0  0  0  0  0  0  0
    4.5287   -3.6645    1.5253 O   0  0  0  0  0  0  0  0  0  0  0  0
    0.8582   -2.1598    0.2301 C   0  0  0  0  0  0  0  0  0  0  0  0
   -0.0821   -3.1023    0.0349 C   0  0  0  0  0  0  0  0  0  0  0  0
   -1.5157   -2.8397   -0.0531 C   0  0  0  0  0  0  0  0  0  0  0  0
   -2.3207   -3.7423   -0.2399 O   0  0  0  0  0  0  0  0  0  0  0  0
   -1.8956   -1.5246    0.0890 O   0  0  0  0  0  0  0  0  0  0  0  0
   -0.9742   -0.4863    0.3451 C   0  0  0  0  0  0  0  0  0  0  0  0
   -1.5098    0.8001    0.4931 C   0  0  0  0  0  0  0  0  0  0  0  0
   -2.9709    1.0742    0.4860 C   0  0  0  0  0  0  0  0  0  0  0  0
   -3.3461    2.0709   -0.1340 O   0  0  0  0  0  0  0  0  0  0  0  0
   -3.8998    0.2549    1.3710 C   0  0  0  0  0  0  0  0  0  0  0  0
   -5.2635   -0.0947    0.7521 C   0  0  0  0  0  0  0  0  0  0  0  0
   -6.1712    1.1247    0.5819 C   0  0  0  0  0  0  0  0  0  0  0  0
   -5.1345   -0.8599   -0.5637 C   0  0  0  0  0  0  0  0  0  0  0  0
   -0.6378    1.8853    0.6375 C   0  0  0  0  0  0  0  0  0  0  0  0
   -1.1170    3.1713    0.7108 O   0  0  0  0  0  0  0  0  0  0  0  0
    0.7506    1.6969    0.7181 C   0  0  0  0  0  0  0  0  0  0  0  0
    1.6509    2.9081    0.8913 C   0  0  0  0  0  0  0  0  0  0  0  0
    2.2316    3.3813   -0.4171 C   0  0  0  0  0  0  0  0  0  0  0  0
    2.0176    4.5547   -1.0458 C   0  0  0  0  0  0  0  0  0  0  0  0
    2.6927    4.8543   -2.3600 C   0  0  0  0  0  0  0  0  0  0  0  0
    1.1154    5.6559   -0.5589 C   0  0  0  0  0  0  0  0  0  0  0  0
    1.2533    0.3782    0.5952 C   0  0  0  0  0  0  0  0  0  0  0  0
    2.6052    0.1632    0.6571 O   0  0  0  0  0  0  0  0  0  0  0  0
    0.4089   -0.7431    0.3955 C   0  0  0  0  0  0  0  0  0  0  0  0
    3.2377   -3.0214   -3.0599 H   0  0  0  0  0  0  0  0  0  0  0  0
    1.5822   -3.0024   -2.4475 H   0  0  0  0  0  0  0  0  0  0  0  0
    2.7107   -4.2727   -1.9285 H   0  0  0  0  0  0  0  0  0  0  0  0
    4.1521   -2.5239   -0.8673 H   0  0  0  0  0  0  0  0  0  0  0  0
    3.0052   -1.2800   -1.3377 H   0  0  0  0  0  0  0  0  0  0  0  0
    2.8050   -2.0176    1.1323 H   0  0  0  0  0  0  0  0  0  0  0  0
    3.4037   -6.3989    0.5983 H   0  0  0  0  0  0  0  0  0  0  0  0
    2.6669   -6.0571    2.2019 H   0  0  0  0  0  0  0  0  0  0  0  0
    4.4305   -6.1625    2.0280 H   0  0  0  0  0  0  0  0  0  0  0  0
    0.1693   -4.1503   -0.0914 H   0  0  0  0  0  0  0  0  0  0  0  0
   -3.4125   -0.6669    1.6994 H   0  0  0  0  0  0  0  0  0  0  0  0
   -4.0537    0.8427    2.2854 H   0  0  0  0  0  0  0  0  0  0  0  0
   -5.7675   -0.7600    1.4664 H   0  0  0  0  0  0  0  0  0  0  0  0
   -7.1870    0.8085    0.3199 H   0  0  0  0  0  0  0  0  0  0  0  0
   -5.8240    1.7907   -0.2131 H   0  0  0  0  0  0  0  0  0  0  0  0
   -6.2332    1.7000    1.5114 H   0  0  0  0  0  0  0  0  0  0  0  0
   -4.5632   -1.7820   -0.4220 H   0  0  0  0  0  0  0  0  0  0  0  0
   -6.1222   -1.1414   -0.9445 H   0  0  0  0  0  0  0  0  0  0  0  0
   -4.6380   -0.2627   -1.3352 H   0  0  0  0  0  0  0  0  0  0  0  0
   -2.0204    3.1874    0.3193 H   0  0  0  0  0  0  0  0  0  0  0  0
    2.4719    2.6618    1.5760 H   0  0  0  0  0  0  0  0  0  0  0  0
    1.1209    3.7028    1.4237 H   0  0  0  0  0  0  0  0  0  0  0  0
    2.9060    2.6726   -0.8965 H   0  0  0  0  0  0  0  0  0  0  0  0
    3.3385    4.0351   -2.6933 H   0  0  0  0  0  0  0  0  0  0  0  0
    3.3141    5.7514   -2.2707 H   0  0  0  0  0  0  0  0  0  0  0  0
    1.9440    5.0251   -3.1405 H   0  0  0  0  0  0  0  0  0  0  0  0
    0.3273    5.8472   -1.2949 H   0  0  0  0  0  0  0  0  0  0  0  0
    0.6250    5.4367    0.3908 H   0  0  0  0  0  0  0  0  0  0  0  0
    1.6902    6.5781   -0.4230 H   0  0  0  0  0  0  0  0  0  0  0  0
    3.1029    0.9919    0.7233 H   0  0  0  0  0  0  0  0  0  0  0  0
  1  2  1  0
  2  3  1  0
  3  4  1  0
  4  5  1  0
  5  6  1  0
  5  7  2  0
  3  8  1  0
  8  9  2  0
  9 10  1  0
 10 11  2  0
 10 12  1  0
 12 13  1  0
 13 14  2  0
 14 15  1  0
 15 16  2  0
 15 17  1  0
 17 18  1  0
 18 19  1  0
 18 20  1  0
 14 21  1  0
 21 22  1  0
 21 23  2  0
 23 24  1  0
 24 25  1  0
 25 26  2  3
 26 27  1  0
 26 28  1  0
 23 29  1  0
 29 30  1  0
 29 31  2  0
 31  8  1  0
 31 13  1  0
  1 32  1  0
  1 33  1  0
  1 34  1  0
  2 35  1  0
  2 36  1  0
  3 37  1  1
  6 38  1  0
  6 39  1  0
  6 40  1  0
  9 41  1  0
 17 42  1  0
 17 43  1  0
 18 44  1  0
 19 45  1  0
 19 46  1  0
 19 47  1  0
 20 48  1  0
 20 49  1  0
 20 50  1  0
 22 51  1  0
 24 52  1  0
 24 53  1  0
 25 54  1  0
 27 55  1  0
 27 56  1  0
 27 57  1  0
 28 58  1  0
 28 59  1  0
 28 60  1  0
 30 61  1  0
M  END
>  <Name>  (836) 
Mammea E/Ba

>  <PubChem ID>  (836) 
11517592

>  <CDB ID>  (836) 
CDB0836

>  <Smiles>  (836) 
CC[C@H](OC(C)=O)C1=CC(=O)OC2=C(C(=O)CC(C)C)C(O)=C(CC=C(C)C)C(O)=C12

>  <Chemical class>  (836) 
Simple prenylated coumarins

>  <Natural source>  (836) 
Mammea neurophylla

>  <Molecular Formula>  (836) 
C24H30O7

>  <InChI-Key>  (836) 
YOWZJSSQEMLPTC-SFHVURJKSA-N

>  <Total Molweight>  (836) 
430.495

>  <cLogP>  (836) 
4.2766

>  <cLogS>  (836) 
-4.381

>  <H-Acceptors>  (836) 
7

>  <H-Donors>  (836) 
2

>  <Rotatable Bonds>  (836) 
9

>  <Polar Surface Area>  (836) 
110.13

$$$$
CDB0837
     RDKit          3D

 62 63  0  0  0  0  0  0  0  0999 V2000
    7.1149   -0.3350    1.9433 C   0  0  0  0  0  0  0  0  0  0  0  0
    6.0163   -1.3679    2.1411 C   0  0  0  0  0  0  0  0  0  0  0  0
    4.6230   -0.7551    2.3070 C   0  0  0  0  0  0  0  0  0  0  0  0
    4.1485    0.0064    1.0587 C   0  0  0  0  0  0  0  0  0  0  0  0
    2.6578    0.4214    1.0758 C   0  0  2  0  0  0  0  0  0  0  0  0
    2.3935    0.9700    2.3656 O   0  0  0  0  0  0  0  0  0  0  0  0
    1.5966   -0.6286    0.7529 C   0  0  0  0  0  0  0  0  0  0  0  0
    1.9257   -1.9181    0.5620 C   0  0  0  0  0  0  0  0  0  0  0  0
    0.9763   -2.9864    0.2569 C   0  0  0  0  0  0  0  0  0  0  0  0
    1.3452   -4.1414    0.0911 O   0  0  0  0  0  0  0  0  0  0  0  0
   -0.3431   -2.6112    0.1615 O   0  0  0  0  0  0  0  0  0  0  0  0
   -0.7680   -1.2705    0.2789 C   0  0  0  0  0  0  0  0  0  0  0  0
   -2.1406   -1.0280    0.0952 C   0  0  0  0  0  0  0  0  0  0  0  0
   -3.1118   -2.0910   -0.2971 C   0  0  0  0  0  0  0  0  0  0  0  0
   -4.2670   -1.9868    0.1215 O   0  0  0  0  0  0  0  0  0  0  0  0
   -2.6812   -3.2116   -1.2295 C   0  0  0  0  0  0  0  0  0  0  0  0
   -3.8271   -3.7064   -2.1292 C   0  0  0  0  0  0  0  0  0  0  0  0
   -4.2264   -2.6458   -3.1584 C   0  0  0  0  0  0  0  0  0  0  0  0
   -3.4120   -4.9933   -2.8447 C   0  0  0  0  0  0  0  0  0  0  0  0
   -2.6273    0.2716    0.2931 C   0  0  0  0  0  0  0  0  0  0  0  0
   -3.9646    0.5635    0.1748 O   0  0  0  0  0  0  0  0  0  0  0  0
   -1.7627    1.3279    0.6103 C   0  0  0  0  0  0  0  0  0  0  0  0
   -2.3194    2.7232    0.8413 C   0  0  0  0  0  0  0  0  0  0  0  0
   -2.1713    3.6011   -0.3743 C   0  0  0  0  0  0  0  0  0  0  0  0
   -1.5584    4.7976   -0.4786 C   0  0  0  0  0  0  0  0  0  0  0  0
   -0.8828    5.5399    0.6420 C   0  0  0  0  0  0  0  0  0  0  0  0
   -1.5286    5.5245   -1.7998 C   0  0  0  0  0  0  0  0  0  0  0  0
   -0.3799    1.0515    0.7195 C   0  0  0  0  0  0  0  0  0  0  0  0
    0.4699    2.0989    0.9795 O   0  0  0  0  0  0  0  0  0  0  0  0
    0.1535   -0.2530    0.5931 C   0  0  0  0  0  0  0  0  0  0  0  0
    7.1196    0.3949    2.7590 H   0  0  0  0  0  0  0  0  0  0  0  0
    8.0930   -0.8263    1.9227 H   0  0  0  0  0  0  0  0  0  0  0  0
    6.9943    0.2023    0.9980 H   0  0  0  0  0  0  0  0  0  0  0  0
    6.0167   -2.0670    1.2967 H   0  0  0  0  0  0  0  0  0  0  0  0
    6.2466   -1.9551    3.0381 H   0  0  0  0  0  0  0  0  0  0  0  0
    4.6305   -0.0782    3.1702 H   0  0  0  0  0  0  0  0  0  0  0  0
    3.9244   -1.5610    2.5543 H   0  0  0  0  0  0  0  0  0  0  0  0
    4.3764   -0.5534    0.1438 H   0  0  0  0  0  0  0  0  0  0  0  0
    4.7390    0.9309    1.0034 H   0  0  0  0  0  0  0  0  0  0  0  0
    2.5823    1.2216    0.3283 H   0  0  0  0  0  0  0  0  0  0  0  0
    1.5980    1.5257    2.2497 H   0  0  0  0  0  0  0  0  0  0  0  0
    2.9432   -2.2821    0.6316 H   0  0  0  0  0  0  0  0  0  0  0  0
   -1.8534   -2.8726   -1.8625 H   0  0  0  0  0  0  0  0  0  0  0  0
   -2.3295   -4.0373   -0.6000 H   0  0  0  0  0  0  0  0  0  0  0  0
   -4.7058   -3.9327   -1.5124 H   0  0  0  0  0  0  0  0  0  0  0  0
   -3.3825   -2.3821   -3.8052 H   0  0  0  0  0  0  0  0  0  0  0  0
   -4.5778   -1.7307   -2.6715 H   0  0  0  0  0  0  0  0  0  0  0  0
   -5.0379   -3.0122   -3.7962 H   0  0  0  0  0  0  0  0  0  0  0  0
   -2.5362   -4.8297   -3.4820 H   0  0  0  0  0  0  0  0  0  0  0  0
   -4.2253   -5.3674   -3.4757 H   0  0  0  0  0  0  0  0  0  0  0  0
   -3.1637   -5.7774   -2.1217 H   0  0  0  0  0  0  0  0  0  0  0  0
   -4.4728   -0.2805    0.1984 H   0  0  0  0  0  0  0  0  0  0  0  0
   -3.3825    2.6804    1.1062 H   0  0  0  0  0  0  0  0  0  0  0  0
   -1.8379    3.1433    1.7296 H   0  0  0  0  0  0  0  0  0  0  0  0
   -2.6552    3.1913   -1.2632 H   0  0  0  0  0  0  0  0  0  0  0  0
   -1.3430    6.5253    0.7713 H   0  0  0  0  0  0  0  0  0  0  0  0
   -0.9418    5.0269    1.6037 H   0  0  0  0  0  0  0  0  0  0  0  0
    0.1780    5.6827    0.4105 H   0  0  0  0  0  0  0  0  0  0  0  0
   -0.4936    5.6943   -2.1144 H   0  0  0  0  0  0  0  0  0  0  0  0
   -2.0296    6.4940   -1.7108 H   0  0  0  0  0  0  0  0  0  0  0  0
   -2.0294    4.9634   -2.5959 H   0  0  0  0  0  0  0  0  0  0  0  0
    0.1067    2.9011    0.5597 H   0  0  0  0  0  0  0  0  0  0  0  0
  1  2  1  0
  2  3  1  0
  3  4  1  0
  4  5  1  0
  5  6  1  0
  5  7  1  0
  7  8  2  0
  8  9  1  0
  9 10  2  0
  9 11  1  0
 11 12  1  0
 12 13  2  0
 13 14  1  0
 14 15  2  0
 14 16  1  0
 16 17  1  0
 17 18  1  0
 17 19  1  0
 13 20  1  0
 20 21  1  0
 20 22  2  0
 22 23  1  0
 23 24  1  0
 24 25  2  3
 25 26  1  0
 25 27  1  0
 22 28  1  0
 28 29  1  0
 28 30  2  0
 30  7  1  0
 30 12  1  0
  1 31  1  0
  1 32  1  0
  1 33  1  0
  2 34  1  0
  2 35  1  0
  3 36  1  0
  3 37  1  0
  4 38  1  0
  4 39  1  0
  5 40  1  6
  6 41  1  0
  8 42  1  0
 16 43  1  0
 16 44  1  0
 17 45  1  0
 18 46  1  0
 18 47  1  0
 18 48  1  0
 19 49  1  0
 19 50  1  0
 19 51  1  0
 21 52  1  0
 23 53  1  0
 23 54  1  0
 24 55  1  0
 26 56  1  0
 26 57  1  0
 26 58  1  0
 27 59  1  0
 27 60  1  0
 27 61  1  0
 29 62  1  0
M  END
>  <Name>  (837) 
Mammea F/Ba

>  <PubChem ID>  (837) 
51040688

>  <CDB ID>  (837) 
CDB0837

>  <Smiles>  (837) 
CCCC[C@H](O)C1=CC(=O)OC2=C(C(=O)CC(C)C)C(O)=C(CC=C(C)C)C(O)=C12

>  <Chemical class>  (837) 
Simple prenylated coumarins

>  <Natural source>  (837) 
Mammea neurophylla

>  <Molecular Formula>  (837) 
C24H32O6

>  <InChI-Key>  (837) 
KDXSRMVJFBSRCC-KRWDZBQOSA-N

>  <Total Molweight>  (837) 
416.512

>  <cLogP>  (837) 
4.7008

>  <cLogS>  (837) 
-4.511

>  <H-Acceptors>  (837) 
6

>  <H-Donors>  (837) 
3

>  <Rotatable Bonds>  (837) 
9

>  <Polar Surface Area>  (837) 
104.06

$$$$
CDB0838
     RDKit          3D

 50 51  0  0  0  0  0  0  0  0999 V2000
   -4.7509    3.1644    0.4826 C   0  0  0  0  0  0  0  0  0  0  0  0
   -3.9329    2.0326   -0.0609 C   0  0  0  0  0  0  0  0  0  0  0  0
   -3.5559    1.9561   -1.2211 O   0  0  0  0  0  0  0  0  0  0  0  0
   -3.6856    1.1327    0.9286 O   0  0  0  0  0  0  0  0  0  0  0  0
   -2.9083   -0.0210    0.5526 C   0  0  2  0  0  0  0  0  0  0  0  0
   -3.8898   -1.1291    0.2507 C   0  0  0  0  0  0  0  0  0  0  0  0
   -3.9945   -1.8674   -0.8725 C   0  0  0  0  0  0  0  0  0  0  0  0
   -3.1167   -1.7340   -2.0871 C   0  0  0  0  0  0  0  0  0  0  0  0
   -5.0600   -2.9256   -0.9972 C   0  0  0  0  0  0  0  0  0  0  0  0
   -2.0233   -0.4220    1.7520 C   0  0  0  0  0  0  0  0  0  0  0  0
   -0.8263    0.4942    1.9474 C   0  0  0  0  0  0  0  0  0  0  0  0
   -1.0617    1.6858    2.8397 C   0  0  0  0  0  0  0  0  0  0  0  0
    0.3881    0.2789    1.3998 C   0  0  0  0  0  0  0  0  0  0  0  0
    0.7960   -0.8351    0.4752 C   0  0  0  0  0  0  0  0  0  0  0  0
    1.4043   -0.2888   -0.6971 O   0  0  0  0  0  0  0  0  0  0  0  0
    2.7628   -0.1494   -0.7395 C   0  0  0  0  0  0  0  0  0  0  0  0
    3.6424   -0.2892    0.3313 C   0  0  0  0  0  0  0  0  0  0  0  0
    5.0092   -0.1007    0.1171 C   0  0  0  0  0  0  0  0  0  0  0  0
    5.5238    0.2283   -1.1348 C   0  0  0  0  0  0  0  0  0  0  0  0
    6.9578    0.4101   -1.2838 C   0  0  0  0  0  0  0  0  0  0  0  0
    7.7535    0.2602   -0.2205 C   0  0  0  0  0  0  0  0  0  0  0  0
    7.2338   -0.0857    1.1143 C   0  0  0  0  0  0  0  0  0  0  0  0
    7.9939   -0.2151    2.0670 O   0  0  0  0  0  0  0  0  0  0  0  0
    5.8608   -0.2540    1.2308 O   0  0  0  0  0  0  0  0  0  0  0  0
    4.6415    0.3763   -2.2026 C   0  0  0  0  0  0  0  0  0  0  0  0
    3.2692    0.1904   -2.0006 C   0  0  0  0  0  0  0  0  0  0  0  0
   -4.9518    3.8834   -0.3169 H   0  0  0  0  0  0  0  0  0  0  0  0
   -4.1988    3.6724    1.2772 H   0  0  0  0  0  0  0  0  0  0  0  0
   -5.7051    2.7857    0.8574 H   0  0  0  0  0  0  0  0  0  0  0  0
   -2.2607    0.2087   -0.2981 H   0  0  0  0  0  0  0  0  0  0  0  0
   -4.5946   -1.3223    1.0595 H   0  0  0  0  0  0  0  0  0  0  0  0
   -2.6488   -2.6970   -2.3182 H   0  0  0  0  0  0  0  0  0  0  0  0
   -3.7159   -1.4266   -2.9506 H   0  0  0  0  0  0  0  0  0  0  0  0
   -2.3106   -1.0076   -1.9699 H   0  0  0  0  0  0  0  0  0  0  0  0
   -5.6868   -2.9930   -0.1018 H   0  0  0  0  0  0  0  0  0  0  0  0
   -4.6023   -3.9074   -1.1568 H   0  0  0  0  0  0  0  0  0  0  0  0
   -5.7159   -2.7046   -1.8457 H   0  0  0  0  0  0  0  0  0  0  0  0
   -1.6718   -1.4546    1.6316 H   0  0  0  0  0  0  0  0  0  0  0  0
   -2.6171   -0.4215    2.6764 H   0  0  0  0  0  0  0  0  0  0  0  0
   -1.8205    2.3462    2.4104 H   0  0  0  0  0  0  0  0  0  0  0  0
   -1.4012    1.3592    3.8281 H   0  0  0  0  0  0  0  0  0  0  0  0
   -0.1532    2.2801    2.9846 H   0  0  0  0  0  0  0  0  0  0  0  0
    1.1834    0.9905    1.6170 H   0  0  0  0  0  0  0  0  0  0  0  0
   -0.0754   -1.3937    0.1212 H   0  0  0  0  0  0  0  0  0  0  0  0
    1.4363   -1.5650    0.9817 H   0  0  0  0  0  0  0  0  0  0  0  0
    3.3068   -0.5270    1.3338 H   0  0  0  0  0  0  0  0  0  0  0  0
    7.3619    0.6656   -2.2571 H   0  0  0  0  0  0  0  0  0  0  0  0
    8.8270    0.3870   -0.2884 H   0  0  0  0  0  0  0  0  0  0  0  0
    5.0007    0.6372   -3.1948 H   0  0  0  0  0  0  0  0  0  0  0  0
    2.5833    0.3113   -2.8369 H   0  0  0  0  0  0  0  0  0  0  0  0
  1  2  1  0
  2  3  2  0
  2  4  1  0
  4  5  1  0
  5  6  1  0
  6  7  2  3
  7  8  1  0
  7  9  1  0
  5 10  1  0
 10 11  1  0
 11 12  1  0
 11 13  2  3
 13 14  1  0
 14 15  1  0
 15 16  1  0
 16 17  2  0
 17 18  1  0
 18 19  2  0
 19 20  1  0
 20 21  2  0
 21 22  1  0
 22 23  2  0
 22 24  1  0
 19 25  1  0
 25 26  2  0
 26 16  1  0
 24 18  1  0
  1 27  1  0
  1 28  1  0
  1 29  1  0
  5 30  1  6
  6 31  1  0
  8 32  1  0
  8 33  1  0
  8 34  1  0
  9 35  1  0
  9 36  1  0
  9 37  1  0
 10 38  1  0
 10 39  1  0
 12 40  1  0
 12 41  1  0
 12 42  1  0
 13 43  1  0
 14 44  1  0
 14 45  1  0
 17 46  1  0
 20 47  1  0
 21 48  1  0
 25 49  1  0
 26 50  1  0
M  END
>  <Name>  (838) 
5'-Acetoxyauraptene

>  <PubChem ID>  (838) 
5319385

>  <CDB ID>  (838) 
CDB0838

>  <Smiles>  (838) 
CC(=O)O[C@H](C=C(C)C)CC(C)=CCOC1=CC2=C(C=CC(=O)O2)C=C1

>  <Chemical class>  (838) 
Simple geranylated coumarins

>  <Natural source>  (838) 
Ferula gummosa

>  <Molecular Formula>  (838) 
C21H24O5

>  <InChI-Key>  (838) 
HBHAENAAWHAOMI-LJQANCHMSA-N

>  <Total Molweight>  (838) 
356.417

>  <cLogP>  (838) 
4.7313

>  <cLogS>  (838) 
-4.111

>  <H-Acceptors>  (838) 
5

>  <H-Donors>  (838) 
0

>  <Rotatable Bonds>  (838) 
8

>  <Polar Surface Area>  (838) 
61.83

$$$$
CDB0839
     RDKit          3D

 34 36  0  0  0  0  0  0  0  0999 V2000
    3.3153   -1.5725   -0.3896 C   0  0  0  0  0  0  0  0  0  0  0  0
    3.0385   -0.1075   -0.5842 C   0  0  0  0  0  0  0  0  0  0  0  0
    2.1369    0.6131    0.1121 C   0  0  0  0  0  0  0  0  0  0  0  0
    1.2459    0.1542    1.2357 C   0  0  0  0  0  0  0  0  0  0  0  0
   -0.1822   -0.0238    0.7979 C   0  0  0  0  0  0  0  0  0  0  0  0
   -1.0725    1.0586    0.6374 C   0  0  0  0  0  0  0  0  0  0  0  0
   -2.3983    0.9183    0.2109 C   0  0  0  0  0  0  0  0  0  0  0  0
   -2.8904   -0.3644   -0.0811 C   0  0  0  0  0  0  0  0  0  0  0  0
   -2.0450   -1.4835    0.0594 C   0  0  0  0  0  0  0  0  0  0  0  0
   -0.7369   -1.2723    0.4883 C   0  0  0  0  0  0  0  0  0  0  0  0
   -0.0769   -2.4646    0.5648 O   0  0  0  0  0  0  0  0  0  0  0  0
   -0.9458   -3.4340    0.1870 C   0  0  0  0  0  0  0  0  0  0  0  0
   -2.1667   -2.8891   -0.1325 C   0  0  0  0  0  0  0  0  0  0  0  0
   -4.1965   -0.4977   -0.5013 O   0  0  0  0  0  0  0  0  0  0  0  0
   -3.2230    2.1157    0.0827 C   0  0  0  0  0  0  0  0  0  0  0  0
   -2.7182    3.3195    0.3652 C   0  0  0  0  0  0  0  0  0  0  0  0
   -1.3308    3.5013    0.8139 C   0  0  0  0  0  0  0  0  0  0  0  0
   -0.8897    4.6162    1.0652 O   0  0  0  0  0  0  0  0  0  0  0  0
   -0.5645    2.3519    0.9351 O   0  0  0  0  0  0  0  0  0  0  0  0
    3.8609    0.5378   -1.6692 C   0  0  0  0  0  0  0  0  0  0  0  0
    2.6913   -2.0378    0.3754 H   0  0  0  0  0  0  0  0  0  0  0  0
    4.3600   -1.7215   -0.0973 H   0  0  0  0  0  0  0  0  0  0  0  0
    3.1386   -2.1149   -1.3246 H   0  0  0  0  0  0  0  0  0  0  0  0
    2.0271    1.6711   -0.1288 H   0  0  0  0  0  0  0  0  0  0  0  0
    1.2918    0.8926    2.0463 H   0  0  0  0  0  0  0  0  0  0  0  0
    1.6127   -0.7715    1.6903 H   0  0  0  0  0  0  0  0  0  0  0  0
   -0.5534   -4.4417    0.1976 H   0  0  0  0  0  0  0  0  0  0  0  0
   -3.0328   -3.4433   -0.4631 H   0  0  0  0  0  0  0  0  0  0  0  0
   -4.3661   -1.4401   -0.6661 H   0  0  0  0  0  0  0  0  0  0  0  0
   -4.2510    2.0064   -0.2476 H   0  0  0  0  0  0  0  0  0  0  0  0
   -3.3100    4.2220    0.2763 H   0  0  0  0  0  0  0  0  0  0  0  0
    3.6335    1.6026   -1.7868 H   0  0  0  0  0  0  0  0  0  0  0  0
    4.9277    0.4496   -1.4387 H   0  0  0  0  0  0  0  0  0  0  0  0
    3.6704    0.0495   -2.6305 H   0  0  0  0  0  0  0  0  0  0  0  0
  1  2  1  0
  2  3  2  3
  3  4  1  0
  4  5  1  0
  5  6  1  0
  6  7  2  0
  7  8  1  0
  8  9  2  0
  9 10  1  0
 10 11  1  0
 11 12  1  0
 12 13  2  0
  8 14  1  0
  7 15  1  0
 15 16  2  0
 16 17  1  0
 17 18  2  0
 17 19  1  0
  2 20  1  0
 10  5  2  0
 19  6  1  0
 13  9  1  0
  1 21  1  0
  1 22  1  0
  1 23  1  0
  3 24  1  0
  4 25  1  0
  4 26  1  0
 12 27  1  0
 13 28  1  0
 14 29  1  0
 15 30  1  0
 16 31  1  0
 20 32  1  0
 20 33  1  0
 20 34  1  0
M  END
>  <Name>  (839) 
Alloisoimperatorin

>  <PubChem ID>  (839) 
5317436

>  <CDB ID>  (839) 
CDB0839

>  <Smiles>  (839) 
CC(=CCC1=C2C(=C(C3=C1OC=C3)O)C=CC(=O)O2)C

>  <Chemical class>  (839) 
Simple prenylated linear furanocoumarins

>  <Natural source>  (839) 
Angelica dahurica

>  <Molecular Formula>  (839) 
C16H14O4

>  <InChI-Key>  (839) 
JLCROWZWGSUEMR-UHFFFAOYSA-N

>  <Total Molweight>  (839) 
270.283

>  <cLogP>  (839) 
3.6258

>  <cLogS>  (839) 
-4.172

>  <H-Acceptors>  (839) 
4

>  <H-Donors>  (839) 
1

>  <Rotatable Bonds>  (839) 
2

>  <Polar Surface Area>  (839) 
59.67

$$$$
CDB0840
     RDKit          3D

 42 44  0  0  0  0  0  0  0  0999 V2000
   -5.4637   -0.6572   -0.0085 C   0  0  0  0  0  0  0  0  0  0  0  0
   -4.5802   -1.6123   -0.5994 O   0  0  0  0  0  0  0  0  0  0  0  0
   -3.2853   -1.1339   -0.5801 C   0  0  0  0  0  0  0  0  0  0  0  0
   -2.4914   -1.2485    0.5817 C   0  0  0  0  0  0  0  0  0  0  0  0
   -2.6873   -1.7717    1.8910 C   0  0  0  0  0  0  0  0  0  0  0  0
   -1.5099   -1.5765    2.5695 C   0  0  0  0  0  0  0  0  0  0  0  0
   -0.5966   -0.9746    1.7691 O   0  0  0  0  0  0  0  0  0  0  0  0
   -1.1789   -0.7750    0.5484 C   0  0  0  0  0  0  0  0  0  0  0  0
   -0.5867   -0.1976   -0.5837 C   0  0  0  0  0  0  0  0  0  0  0  0
    0.6963    0.3027   -0.7167 O   0  0  0  0  0  0  0  0  0  0  0  0
    1.5156    0.3076    0.4622 C   0  0  0  0  0  0  0  0  0  0  0  0
    2.8543    0.9616    0.0788 C   0  0  2  0  0  0  0  0  0  0  0  0
    3.4737    0.1867   -0.9603 O   0  0  0  0  0  0  0  0  0  0  0  0
    3.8246    1.1384    1.2752 C   0  0  0  0  0  0  0  0  0  0  0  0
    5.0858    1.8886    0.8249 C   0  0  0  0  0  0  0  0  0  0  0  0
    4.2287   -0.1968    1.9108 C   0  0  0  0  0  0  0  0  0  0  0  0
    3.1804    1.9313    2.2820 O   0  0  0  0  0  0  0  0  0  0  0  0
   -1.4035   -0.1454   -1.7290 C   0  0  0  0  0  0  0  0  0  0  0  0
   -2.7227   -0.6066   -1.7566 C   0  0  0  0  0  0  0  0  0  0  0  0
   -3.4650   -0.5226   -3.0111 C   0  0  0  0  0  0  0  0  0  0  0  0
   -2.8945   -0.0001   -4.1000 C   0  0  0  0  0  0  0  0  0  0  0  0
   -1.5156    0.5104   -4.0975 C   0  0  0  0  0  0  0  0  0  0  0  0
   -1.0230    0.9932   -5.1098 O   0  0  0  0  0  0  0  0  0  0  0  0
   -0.8235    0.4108   -2.9019 O   0  0  0  0  0  0  0  0  0  0  0  0
   -6.4873   -1.0150   -0.1545 H   0  0  0  0  0  0  0  0  0  0  0  0
   -5.2880   -0.5675    1.0682 H   0  0  0  0  0  0  0  0  0  0  0  0
   -5.3754    0.3225   -0.4916 H   0  0  0  0  0  0  0  0  0  0  0  0
   -3.5809   -2.2365    2.2831 H   0  0  0  0  0  0  0  0  0  0  0  0
   -1.1765   -1.8008    3.5735 H   0  0  0  0  0  0  0  0  0  0  0  0
    1.6867   -0.7296    0.7689 H   0  0  0  0  0  0  0  0  0  0  0  0
    1.0290    0.8859    1.2546 H   0  0  0  0  0  0  0  0  0  0  0  0
    2.6346    1.9460   -0.3549 H   0  0  0  0  0  0  0  0  0  0  0  0
    2.7829    0.0640   -1.6407 H   0  0  0  0  0  0  0  0  0  0  0  0
    5.6496    1.3280    0.0725 H   0  0  0  0  0  0  0  0  0  0  0  0
    5.7498    2.0845    1.6749 H   0  0  0  0  0  0  0  0  0  0  0  0
    4.8254    2.8679    0.4073 H   0  0  0  0  0  0  0  0  0  0  0  0
    3.3664   -0.7016    2.3588 H   0  0  0  0  0  0  0  0  0  0  0  0
    4.9389   -0.0362    2.7306 H   0  0  0  0  0  0  0  0  0  0  0  0
    4.6940   -0.8712    1.1852 H   0  0  0  0  0  0  0  0  0  0  0  0
    3.8223    2.0780    2.9989 H   0  0  0  0  0  0  0  0  0  0  0  0
   -4.4815   -0.9005   -3.0457 H   0  0  0  0  0  0  0  0  0  0  0  0
   -3.4216    0.0698   -5.0437 H   0  0  0  0  0  0  0  0  0  0  0  0
  1  2  1  0
  2  3  1  0
  3  4  2  0
  4  5  1  0
  5  6  2  0
  6  7  1  0
  7  8  1  0
  8  9  2  0
  9 10  1  0
 10 11  1  0
 11 12  1  0
 12 13  1  0
 12 14  1  0
 14 15  1  0
 14 16  1  0
 14 17  1  0
  9 18  1  0
 18 19  2  0
 19 20  1  0
 20 21  2  0
 21 22  1  0
 22 23  2  0
 22 24  1  0
 19  3  1  0
  8  4  1  0
 24 18  1  0
  1 25  1  0
  1 26  1  0
  1 27  1  0
  5 28  1  0
  6 29  1  0
 11 30  1  0
 11 31  1  0
 12 32  1  6
 13 33  1  0
 15 34  1  0
 15 35  1  0
 15 36  1  0
 16 37  1  0
 16 38  1  0
 16 39  1  0
 17 40  1  0
 20 41  1  0
 21 42  1  0
M  END
>  <Name>  (840) 
Byakangelicin

>  <PubChem ID>  (840) 
10211

>  <CDB ID>  (840) 
CDB0840

>  <Smiles>  (840) 
COC1=C2C=COC2=C(OC[C@H](O)C(C)(C)O)C2=C1C=CC(=O)O2

>  <Chemical class>  (840) 
Simple prenylated linear furanocoumarins

>  <Natural source>  (840) 
Angelica dahurica

>  <Molecular Formula>  (840) 
C17H18O7

>  <InChI-Key>  (840) 
PKRPFNXROFUNDE-NSHDSACASA-N

>  <Total Molweight>  (840) 
334.323

>  <cLogP>  (840) 
1.4611

>  <cLogS>  (840) 
-3.716

>  <H-Acceptors>  (840) 
7

>  <H-Donors>  (840) 
2

>  <Rotatable Bonds>  (840) 
5

>  <Polar Surface Area>  (840) 
98.36

$$$$
CDB0841
     RDKit          3D

 38 40  0  0  0  0  0  0  0  0999 V2000
   -3.2326    0.4962   -0.8331 C   0  0  0  0  0  0  0  0  0  0  0  0
   -3.0874   -0.7899   -0.0175 C   0  0  0  0  0  0  0  0  0  0  0  0
   -4.4589   -1.4609    0.1298 C   0  0  0  0  0  0  0  0  0  0  0  0
   -2.2709   -1.7127   -0.7567 O   0  0  0  0  0  0  0  0  0  0  0  0
   -2.4526   -0.5492    1.3821 C   0  0  1  0  0  0  0  0  0  0  0  0
   -2.2075   -1.8247    2.0023 O   0  0  0  0  0  0  0  0  0  0  0  0
   -1.1297    0.2404    1.3752 C   0  0  0  0  0  0  0  0  0  0  0  0
   -0.2406   -0.3191    0.4036 O   0  0  0  0  0  0  0  0  0  0  0  0
    1.0134    0.2564    0.3012 C   0  0  0  0  0  0  0  0  0  0  0  0
    1.5213    1.3629    0.9968 C   0  0  0  0  0  0  0  0  0  0  0  0
    0.8710    2.1182    1.9326 O   0  0  0  0  0  0  0  0  0  0  0  0
    1.7275    3.0822    2.3518 C   0  0  0  0  0  0  0  0  0  0  0  0
    2.9316    2.9732    1.6997 C   0  0  0  0  0  0  0  0  0  0  0  0
    2.8114    1.8654    0.8177 C   0  0  0  0  0  0  0  0  0  0  0  0
    3.6686    1.2430   -0.1108 C   0  0  0  0  0  0  0  0  0  0  0  0
    3.1994    0.1382   -0.8329 C   0  0  0  0  0  0  0  0  0  0  0  0
    1.8999   -0.3282   -0.6205 C   0  0  0  0  0  0  0  0  0  0  0  0
    1.4221   -1.4434   -1.3580 O   0  0  0  0  0  0  0  0  0  0  0  0
    2.2094   -2.1019   -2.2900 C   0  0  0  0  0  0  0  0  0  0  0  0
    1.8079   -3.0639   -2.9332 O   0  0  0  0  0  0  0  0  0  0  0  0
    3.5744   -1.5862   -2.4828 C   0  0  0  0  0  0  0  0  0  0  0  0
    4.0468   -0.5362   -1.8052 C   0  0  0  0  0  0  0  0  0  0  0  0
   -3.8210    1.2470   -0.2961 H   0  0  0  0  0  0  0  0  0  0  0  0
   -3.7237    0.2935   -1.7921 H   0  0  0  0  0  0  0  0  0  0  0  0
   -2.2579    0.9272   -1.0843 H   0  0  0  0  0  0  0  0  0  0  0  0
   -5.1555   -0.8313    0.6928 H   0  0  0  0  0  0  0  0  0  0  0  0
   -4.3771   -2.4290    0.6363 H   0  0  0  0  0  0  0  0  0  0  0  0
   -4.8981   -1.6691   -0.8529 H   0  0  0  0  0  0  0  0  0  0  0  0
   -1.3702   -1.3333   -0.8130 H   0  0  0  0  0  0  0  0  0  0  0  0
   -3.1600   -0.0165    2.0283 H   0  0  0  0  0  0  0  0  0  0  0  0
   -1.8875   -2.4063    1.2823 H   0  0  0  0  0  0  0  0  0  0  0  0
   -1.3410    1.2858    1.1247 H   0  0  0  0  0  0  0  0  0  0  0  0
   -0.6742    0.1690    2.3700 H   0  0  0  0  0  0  0  0  0  0  0  0
    1.3409    3.7567    3.1035 H   0  0  0  0  0  0  0  0  0  0  0  0
    3.7914    3.6126    1.8412 H   0  0  0  0  0  0  0  0  0  0  0  0
    4.6754    1.6241   -0.2577 H   0  0  0  0  0  0  0  0  0  0  0  0
    4.1763   -2.1132   -3.2133 H   0  0  0  0  0  0  0  0  0  0  0  0
    5.0575   -0.1772   -1.9678 H   0  0  0  0  0  0  0  0  0  0  0  0
  1  2  1  0
  2  3  1  0
  2  4  1  0
  2  5  1  0
  5  6  1  0
  5  7  1  0
  7  8  1  0
  8  9  1  0
  9 10  2  0
 10 11  1  0
 11 12  1  0
 12 13  2  0
 13 14  1  0
 14 15  2  0
 15 16  1  0
 16 17  2  0
 17 18  1  0
 18 19  1  0
 19 20  2  0
 19 21  1  0
 21 22  2  0
 17  9  1  0
 14 10  1  0
 22 16  1  0
  1 23  1  0
  1 24  1  0
  1 25  1  0
  3 26  1  0
  3 27  1  0
  3 28  1  0
  4 29  1  0
  5 30  1  1
  6 31  1  0
  7 32  1  0
  7 33  1  0
 12 34  1  0
 13 35  1  0
 15 36  1  0
 21 37  1  0
 22 38  1  0
M  END
>  <Name>  (841) 
Heraclenol

>  <PubChem ID>  (841) 
73253

>  <CDB ID>  (841) 
CDB0841

>  <Smiles>  (841) 
CC(C)(O)[C@@H](O)COC1=C2OC=CC2=CC2=C1OC(=O)C=C2

>  <Chemical class>  (841) 
Simple prenylated linear furanocoumarins

>  <Natural source>  (841) 
Angelica dahurica

>  <Molecular Formula>  (841) 
C16H16O6

>  <InChI-Key>  (841) 
FOINLJRVEBYARJ-NSHDSACASA-N

>  <Total Molweight>  (841) 
304.297

>  <cLogP>  (841) 
1.5311

>  <cLogS>  (841) 
-3.698

>  <H-Acceptors>  (841) 
6

>  <H-Donors>  (841) 
2

>  <Rotatable Bonds>  (841) 
4

>  <Polar Surface Area>  (841) 
89.13

$$$$
CDB0842
     RDKit          3D

 42 44  0  0  0  0  0  0  0  0999 V2000
   -5.4508    1.3260    1.3265 C   0  0  0  0  0  0  0  0  0  0  0  0
   -4.8325    0.1270    0.8819 O   0  0  0  0  0  0  0  0  0  0  0  0
   -3.5580    0.2430    0.3557 C   0  0  0  0  0  0  0  0  0  0  0  0
   -2.7868    1.4050    0.2041 C   0  0  0  0  0  0  0  0  0  0  0  0
   -3.1472    2.6805    0.5417 O   0  0  0  0  0  0  0  0  0  0  0  0
   -2.1219    3.5017    0.2084 C   0  0  0  0  0  0  0  0  0  0  0  0
   -1.0886    2.7815   -0.3377 C   0  0  0  0  0  0  0  0  0  0  0  0
   -1.4997    1.4187   -0.3362 C   0  0  0  0  0  0  0  0  0  0  0  0
   -0.9226    0.1967   -0.7438 C   0  0  0  0  0  0  0  0  0  0  0  0
    0.3384    0.1574   -1.3038 O   0  0  0  0  0  0  0  0  0  0  0  0
    1.3512    0.2627   -0.2825 C   0  0  0  0  0  0  0  0  0  0  0  0
    2.6382   -0.4021   -0.8051 C   0  0  2  0  0  0  0  0  0  0  0  0
    2.4043   -1.8250   -0.8731 O   0  0  0  0  0  0  0  0  0  0  0  0
    3.8824   -0.1583    0.0914 C   0  0  0  0  0  0  0  0  0  0  0  0
    4.2079    1.3272    0.2621 C   0  0  0  0  0  0  0  0  0  0  0  0
    5.1074   -0.8924   -0.4726 C   0  0  0  0  0  0  0  0  0  0  0  0
    3.6004   -0.7145    1.3862 O   0  0  0  0  0  0  0  0  0  0  0  0
   -1.6693   -0.9915   -0.6504 C   0  0  0  0  0  0  0  0  0  0  0  0
   -2.9522   -0.9443   -0.0980 C   0  0  0  0  0  0  0  0  0  0  0  0
   -3.7120   -2.1397    0.0267 O   0  0  0  0  0  0  0  0  0  0  0  0
   -3.2336   -3.3717   -0.3884 C   0  0  0  0  0  0  0  0  0  0  0  0
   -3.8805   -4.4063   -0.2765 O   0  0  0  0  0  0  0  0  0  0  0  0
   -1.8886   -3.3854   -0.9813 C   0  0  0  0  0  0  0  0  0  0  0  0
   -1.1524   -2.2781   -1.1067 C   0  0  0  0  0  0  0  0  0  0  0  0
   -5.5960    2.0273    0.4987 H   0  0  0  0  0  0  0  0  0  0  0  0
   -4.8897    1.7795    2.1496 H   0  0  0  0  0  0  0  0  0  0  0  0
   -6.4416    1.0648    1.7112 H   0  0  0  0  0  0  0  0  0  0  0  0
   -2.2778    4.5518    0.4138 H   0  0  0  0  0  0  0  0  0  0  0  0
   -0.1532    3.1833   -0.6996 H   0  0  0  0  0  0  0  0  0  0  0  0
    1.0242   -0.2335    0.6409 H   0  0  0  0  0  0  0  0  0  0  0  0
    1.5127    1.3263   -0.0893 H   0  0  0  0  0  0  0  0  0  0  0  0
    2.8336   -0.0676   -1.8306 H   0  0  0  0  0  0  0  0  0  0  0  0
    2.4614   -2.1362    0.0525 H   0  0  0  0  0  0  0  0  0  0  0  0
    3.4374    1.8465    0.8407 H   0  0  0  0  0  0  0  0  0  0  0  0
    5.1376    1.4580    0.8285 H   0  0  0  0  0  0  0  0  0  0  0  0
    4.3241    1.8261   -0.7053 H   0  0  0  0  0  0  0  0  0  0  0  0
    5.9854   -0.7330    0.1643 H   0  0  0  0  0  0  0  0  0  0  0  0
    4.9485   -1.9759   -0.4995 H   0  0  0  0  0  0  0  0  0  0  0  0
    5.3491   -0.5484   -1.4834 H   0  0  0  0  0  0  0  0  0  0  0  0
    4.4018   -0.6181    1.9324 H   0  0  0  0  0  0  0  0  0  0  0  0
   -1.5269   -4.3503   -1.3144 H   0  0  0  0  0  0  0  0  0  0  0  0
   -0.1641   -2.3184   -1.5548 H   0  0  0  0  0  0  0  0  0  0  0  0
  1  2  1  0
  2  3  1  0
  3  4  2  0
  4  5  1  0
  5  6  1  0
  6  7  2  0
  7  8  1  0
  8  9  2  0
  9 10  1  0
 10 11  1  0
 11 12  1  0
 12 13  1  0
 12 14  1  0
 14 15  1  0
 14 16  1  0
 14 17  1  0
  9 18  1  0
 18 19  2  0
 19 20  1  0
 20 21  1  0
 21 22  2  0
 21 23  1  0
 23 24  2  0
 19  3  1  0
  8  4  1  0
 24 18  1  0
  1 25  1  0
  1 26  1  0
  1 27  1  0
  6 28  1  0
  7 29  1  0
 11 30  1  0
 11 31  1  0
 12 32  1  6
 13 33  1  0
 15 34  1  0
 15 35  1  0
 15 36  1  0
 16 37  1  0
 16 38  1  0
 16 39  1  0
 17 40  1  0
 23 41  1  0
 24 42  1  0
M  END
>  <Name>  (842) 
Isobyakangelicin

>  <PubChem ID>  (842) 
21826768

>  <CDB ID>  (842) 
CDB0842

>  <Smiles>  (842) 
COC1=C2OC=CC2=C(OC[C@H](O)C(C)(C)O)C2=C1OC(=O)C=C2

>  <Chemical class>  (842) 
Simple prenylated linear furanocoumarins

>  <Natural source>  (842) 
Angelica nitida

>  <Molecular Formula>  (842) 
C17H18O7

>  <InChI-Key>  (842) 
MKDVKEKAKJODGJ-NSHDSACASA-N

>  <Total Molweight>  (842) 
334.323

>  <cLogP>  (842) 
1.4611

>  <cLogS>  (842) 
-3.716

>  <H-Acceptors>  (842) 
7

>  <H-Donors>  (842) 
2

>  <Rotatable Bonds>  (842) 
5

>  <Polar Surface Area>  (842) 
98.36

$$$$
CDB0843
     RDKit          3D

 35 38  0  0  0  0  0  0  0  0999 V2000
    1.9997   -2.6338   -1.1184 C   0  0  0  0  0  0  0  0  0  0  0  0
    2.0641   -1.4221   -0.2397 C   0  0  0  0  0  0  0  0  0  0  0  0
    2.1993   -0.1075   -0.9438 C   0  0  0  0  0  0  0  0  0  0  0  0
    2.9547   -1.5647    0.8780 O   0  0  0  0  0  0  0  0  0  0  0  0
    1.5528   -1.5398    1.1903 C   0  0  1  0  0  0  0  0  0  0  0  0
    1.1278   -0.3874    2.0398 C   0  0  0  0  0  0  0  0  0  0  0  0
   -0.3065   -0.2850    2.0503 O   0  0  0  0  0  0  0  0  0  0  0  0
   -0.7765    0.5304    1.0400 C   0  0  0  0  0  0  0  0  0  0  0  0
   -0.6138    1.9338    1.0853 C   0  0  0  0  0  0  0  0  0  0  0  0
   -0.0254    2.8716    1.9796 C   0  0  0  0  0  0  0  0  0  0  0  0
   -0.2035    4.1146    1.4184 C   0  0  0  0  0  0  0  0  0  0  0  0
   -0.8706    4.0144    0.2402 O   0  0  0  0  0  0  0  0  0  0  0  0
   -1.1320    2.6933    0.0410 C   0  0  0  0  0  0  0  0  0  0  0  0
   -1.8219    2.1686   -1.0460 C   0  0  0  0  0  0  0  0  0  0  0  0
   -2.0057    0.7839   -1.0305 C   0  0  0  0  0  0  0  0  0  0  0  0
   -1.5198   -0.0418   -0.0127 C   0  0  0  0  0  0  0  0  0  0  0  0
   -1.8064   -1.4708   -0.0921 C   0  0  0  0  0  0  0  0  0  0  0  0
   -2.4866   -1.9653   -1.1303 C   0  0  0  0  0  0  0  0  0  0  0  0
   -2.9768   -1.1170   -2.2276 C   0  0  0  0  0  0  0  0  0  0  0  0
   -3.5788   -1.6040   -3.1769 O   0  0  0  0  0  0  0  0  0  0  0  0
   -2.7223    0.2425   -2.1235 O   0  0  0  0  0  0  0  0  0  0  0  0
    1.1110   -2.5908   -1.7562 H   0  0  0  0  0  0  0  0  0  0  0  0
    1.9509   -3.5600   -0.5359 H   0  0  0  0  0  0  0  0  0  0  0  0
    2.8832   -2.6898   -1.7625 H   0  0  0  0  0  0  0  0  0  0  0  0
    2.4279    0.7180   -0.2642 H   0  0  0  0  0  0  0  0  0  0  0  0
    1.2755    0.1340   -1.4777 H   0  0  0  0  0  0  0  0  0  0  0  0
    3.0102   -0.1523   -1.6788 H   0  0  0  0  0  0  0  0  0  0  0  0
    1.1035   -2.4698    1.5155 H   0  0  0  0  0  0  0  0  0  0  0  0
    1.4259   -0.5961    3.0736 H   0  0  0  0  0  0  0  0  0  0  0  0
    1.6188    0.5524    1.7687 H   0  0  0  0  0  0  0  0  0  0  0  0
    0.4667    2.6632    2.9189 H   0  0  0  0  0  0  0  0  0  0  0  0
    0.0671    5.1180    1.7173 H   0  0  0  0  0  0  0  0  0  0  0  0
   -2.2066    2.7995   -1.8372 H   0  0  0  0  0  0  0  0  0  0  0  0
   -1.4698   -2.1195    0.7093 H   0  0  0  0  0  0  0  0  0  0  0  0
   -2.7160   -3.0208   -1.2120 H   0  0  0  0  0  0  0  0  0  0  0  0
  1  2  1  0
  2  3  1  0
  2  4  1  0
  4  5  1  0
  5  6  1  0
  6  7  1  0
  7  8  1  0
  8  9  2  0
  9 10  1  0
 10 11  2  0
 11 12  1  0
 12 13  1  0
 13 14  2  0
 14 15  1  0
 15 16  2  0
 16 17  1  0
 17 18  2  0
 18 19  1  0
 19 20  2  0
 19 21  1  0
  5  2  1  0
 16  8  1  0
 13  9  1  0
 21 15  1  0
  1 22  1  0
  1 23  1  0
  1 24  1  0
  3 25  1  0
  3 26  1  0
  3 27  1  0
  5 28  1  6
  6 29  1  0
  6 30  1  0
 10 31  1  0
 11 32  1  0
 14 33  1  0
 17 34  1  0
 18 35  1  0
M  END
>  <Name>  (843) 
Oxypeucedanin

>  <PubChem ID>  (843) 
160544

>  <CDB ID>  (843) 
CDB0843

>  <Smiles>  (843) 
CC1(C)O[C@H]1COC1=C2C=COC2=CC2=C1C=CC(=O)O2

>  <Chemical class>  (843) 
Simple prenylated linear furanocoumarins

>  <Natural source>  (843) 
Angelica dahurica

>  <Molecular Formula>  (843) 
C16H14O5

>  <InChI-Key>  (843) 
QTAGQHZOLRFCBU-ZDUSSCGKSA-N

>  <Total Molweight>  (843) 
286.282

>  <cLogP>  (843) 
2.1175

>  <cLogS>  (843) 
-4.179

>  <H-Acceptors>  (843) 
5

>  <H-Donors>  (843) 
0

>  <Rotatable Bonds>  (843) 
3

>  <Polar Surface Area>  (843) 
61.2

$$$$
CDB0844
     RDKit          3D

 35 37  0  0  0  0  0  0  0  0999 V2000
    4.2558    1.2616    0.6514 C   0  0  0  0  0  0  0  0  0  0  0  0
    3.8710    0.0873   -0.2403 C   0  0  0  0  0  0  0  0  0  0  0  0
    5.0159   -0.9163   -0.3473 C   0  0  0  0  0  0  0  0  0  0  0  0
    2.6079   -0.5807    0.3025 C   0  0  0  0  0  0  0  0  0  0  0  0
    2.6715   -1.5399    1.0720 O   0  0  0  0  0  0  0  0  0  0  0  0
    1.2841    0.0384   -0.1509 C   0  0  0  0  0  0  0  0  0  0  0  0
    0.1721   -0.6566    0.3897 O   0  0  0  0  0  0  0  0  0  0  0  0
   -1.0812   -0.1812    0.0476 C   0  0  0  0  0  0  0  0  0  0  0  0
   -2.1890   -0.8624    0.5839 C   0  0  0  0  0  0  0  0  0  0  0  0
   -3.5117   -0.4934    0.3242 C   0  0  0  0  0  0  0  0  0  0  0  0
   -3.7794    0.6028   -0.5061 C   0  0  0  0  0  0  0  0  0  0  0  0
   -2.7003    1.3141   -1.0654 C   0  0  0  0  0  0  0  0  0  0  0  0
   -1.3960    0.9089   -0.7778 C   0  0  0  0  0  0  0  0  0  0  0  0
   -0.5165    1.7355   -1.4222 O   0  0  0  0  0  0  0  0  0  0  0  0
   -1.2417    2.6527   -2.1091 C   0  0  0  0  0  0  0  0  0  0  0  0
   -2.5861    2.4399   -1.9249 C   0  0  0  0  0  0  0  0  0  0  0  0
   -4.5951   -1.2581    0.9240 C   0  0  0  0  0  0  0  0  0  0  0  0
   -4.3153   -2.2997    1.7122 C   0  0  0  0  0  0  0  0  0  0  0  0
   -2.9357   -2.7194    2.0088 C   0  0  0  0  0  0  0  0  0  0  0  0
   -2.7218   -3.6815    2.7366 O   0  0  0  0  0  0  0  0  0  0  0  0
   -1.9232   -1.9746    1.4259 O   0  0  0  0  0  0  0  0  0  0  0  0
    5.1566    1.7583    0.2763 H   0  0  0  0  0  0  0  0  0  0  0  0
    4.4488    0.9332    1.6788 H   0  0  0  0  0  0  0  0  0  0  0  0
    3.4542    2.0064    0.6912 H   0  0  0  0  0  0  0  0  0  0  0  0
    3.6502    0.4524   -1.2504 H   0  0  0  0  0  0  0  0  0  0  0  0
    4.7235   -1.7752   -0.9611 H   0  0  0  0  0  0  0  0  0  0  0  0
    5.8954   -0.4543   -0.8079 H   0  0  0  0  0  0  0  0  0  0  0  0
    5.3105   -1.2975    0.6367 H   0  0  0  0  0  0  0  0  0  0  0  0
    1.2668   -0.0225   -1.2448 H   0  0  0  0  0  0  0  0  0  0  0  0
    1.2810    1.0770    0.1963 H   0  0  0  0  0  0  0  0  0  0  0  0
   -4.7994    0.9079   -0.7219 H   0  0  0  0  0  0  0  0  0  0  0  0
   -0.6688    3.3778   -2.6708 H   0  0  0  0  0  0  0  0  0  0  0  0
   -3.3875    3.0231   -2.3561 H   0  0  0  0  0  0  0  0  0  0  0  0
   -5.6218   -0.9719    0.7231 H   0  0  0  0  0  0  0  0  0  0  0  0
   -5.0948   -2.8920    2.1757 H   0  0  0  0  0  0  0  0  0  0  0  0
  1  2  1  0
  2  3  1  0
  2  4  1  0
  4  5  2  0
  4  6  1  0
  6  7  1  0
  7  8  1  0
  8  9  1  0
  9 10  2  0
 10 11  1  0
 11 12  2  0
 12 13  1  0
 13 14  1  0
 14 15  1  0
 15 16  2  0
 10 17  1  0
 17 18  2  0
 18 19  1  0
 19 20  2  0
 19 21  1  0
 13  8  2  0
 21  9  1  0
 16 12  1  0
  1 22  1  0
  1 23  1  0
  1 24  1  0
  2 25  1  0
  3 26  1  0
  3 27  1  0
  3 28  1  0
  6 29  1  0
  6 30  1  0
 11 31  1  0
 15 32  1  0
 16 33  1  0
 17 34  1  0
 18 35  1  0
M  END
>  <Name>  (844) 
Pabularinone

>  <PubChem ID>  (844) 
14521099

>  <CDB ID>  (844) 
CDB0844

>  <Smiles>  (844) 
CC(C)C(=O)COC1=C2C(=CC3=C1OC=C3)C=CC(=O)O2

>  <Chemical class>  (844) 
Simple prenylated linear furanocoumarins

>  <Natural source>  (844) 
Angelica dahurica

>  <Molecular Formula>  (844) 
C16H14O5

>  <InChI-Key>  (844) 
SVPDNNKLQWHTPC-UHFFFAOYSA-N

>  <Total Molweight>  (844) 
286.282

>  <cLogP>  (844) 
2.3594

>  <cLogS>  (844) 
-4.199

>  <H-Acceptors>  (844) 
5

>  <H-Donors>  (844) 
0

>  <Rotatable Bonds>  (844) 
4

>  <Polar Surface Area>  (844) 
65.74

$$$$
CDB0845
     RDKit          3D

 44 47  0  0  0  0  0  0  0  0999 V2000
    1.8363   -2.4952    2.2213 C   0  0  0  0  0  0  0  0  0  0  0  0
    1.3183   -1.2672    1.4529 C   0  0  0  0  0  0  0  0  0  0  0  0
    2.2143   -1.0604    0.2030 C   0  0  0  0  0  0  0  0  0  0  0  0
    1.9257    0.1765   -0.6687 C   0  0  0  0  0  0  0  0  0  0  0  0
    2.9623    0.3836   -1.7625 C   0  0  0  0  0  0  0  0  0  0  0  0
    3.9026    1.3086   -1.0917 C   0  0  0  0  0  0  0  0  0  0  0  0
    5.1970    1.5158   -1.3539 C   0  0  0  0  0  0  0  0  0  0  0  0
    3.1732    1.9863    0.0026 C   0  0  0  0  0  0  0  0  0  0  0  0
    3.5697    2.9248    0.6656 O   0  0  0  0  0  0  0  0  0  0  0  0
    1.9620    1.3720    0.1248 O   0  0  0  0  0  0  0  0  0  0  0  0
   -0.2072   -1.4060    1.1825 C   0  0  0  0  0  0  0  0  0  0  0  0
   -0.5737   -2.5693    0.2600 C   0  0  0  0  0  0  0  0  0  0  0  0
   -1.9976   -2.7140    0.1635 O   0  0  0  0  0  0  0  0  0  0  0  0
   -2.6199   -1.5086   -0.0283 C   0  0  0  0  0  0  0  0  0  0  0  0
   -1.9882   -0.2800    0.1738 C   0  0  0  0  0  0  0  0  0  0  0  0
   -0.6944   -0.1753    0.6126 O   0  0  0  0  0  0  0  0  0  0  0  0
   -2.6932    0.8947   -0.0940 C   0  0  0  0  0  0  0  0  0  0  0  0
   -4.0220    0.8630   -0.5206 C   0  0  0  0  0  0  0  0  0  0  0  0
   -4.6541   -0.3717   -0.6877 C   0  0  0  0  0  0  0  0  0  0  0  0
   -3.9521   -1.5557   -0.4419 C   0  0  0  0  0  0  0  0  0  0  0  0
   -4.7144    2.1158   -0.7746 C   0  0  0  0  0  0  0  0  0  0  0  0
   -4.0666    3.2721   -0.6054 C   0  0  0  0  0  0  0  0  0  0  0  0
   -2.6611    3.3360   -0.1685 C   0  0  0  0  0  0  0  0  0  0  0  0
   -2.0985    4.4171   -0.0427 O   0  0  0  0  0  0  0  0  0  0  0  0
   -2.0278    2.1281    0.0806 O   0  0  0  0  0  0  0  0  0  0  0  0
    1.5185   -0.1621    2.3478 O   0  0  0  0  0  0  0  0  0  0  0  0
    2.8603   -2.3280    2.5764 H   0  0  0  0  0  0  0  0  0  0  0  0
    1.8366   -3.4007    1.6075 H   0  0  0  0  0  0  0  0  0  0  0  0
    1.2305   -2.6799    3.1159 H   0  0  0  0  0  0  0  0  0  0  0  0
    2.1756   -1.9543   -0.4319 H   0  0  0  0  0  0  0  0  0  0  0  0
    3.2499   -0.9770    0.5622 H   0  0  0  0  0  0  0  0  0  0  0  0
    0.9405    0.0887   -1.1358 H   0  0  0  0  0  0  0  0  0  0  0  0
    2.5091    0.8930   -2.6209 H   0  0  0  0  0  0  0  0  0  0  0  0
    3.4181   -0.5492   -2.1063 H   0  0  0  0  0  0  0  0  0  0  0  0
    5.7776    2.2247   -0.7680 H   0  0  0  0  0  0  0  0  0  0  0  0
    5.7045    0.9930   -2.1570 H   0  0  0  0  0  0  0  0  0  0  0  0
   -0.7215   -1.5172    2.1485 H   0  0  0  0  0  0  0  0  0  0  0  0
   -0.1802   -2.4273   -0.7540 H   0  0  0  0  0  0  0  0  0  0  0  0
   -0.1911   -3.5194    0.6420 H   0  0  0  0  0  0  0  0  0  0  0  0
   -5.6902   -0.4282   -1.0133 H   0  0  0  0  0  0  0  0  0  0  0  0
   -4.4416   -2.5164   -0.5817 H   0  0  0  0  0  0  0  0  0  0  0  0
   -5.7496    2.0955   -1.0972 H   0  0  0  0  0  0  0  0  0  0  0  0
   -4.5457    4.2271   -0.7837 H   0  0  0  0  0  0  0  0  0  0  0  0
    1.2078    0.6467    1.8890 H   0  0  0  0  0  0  0  0  0  0  0  0
  1  2  1  0
  2  3  1  0
  3  4  1  0
  4  5  1  0
  5  6  1  0
  6  7  2  0
  6  8  1  0
  8  9  2  0
  8 10  1  0
  2 11  1  0
 11 12  1  0
 12 13  1  0
 13 14  1  0
 14 15  2  0
 15 16  1  0
 15 17  1  0
 17 18  2  0
 18 19  1  0
 19 20  2  0
 18 21  1  0
 21 22  2  0
 22 23  1  0
 23 24  2  0
 23 25  1  0
  2 26  1  0
 10  4  1  0
 16 11  1  0
 20 14  1  0
 25 17  1  0
  1 27  1  0
  1 28  1  0
  1 29  1  0
  3 30  1  0
  3 31  1  0
  4 32  1  0
  5 33  1  0
  5 34  1  0
  7 35  1  0
  7 36  1  0
 11 37  1  0
 12 38  1  0
 12 39  1  0
 19 40  1  0
 20 41  1  0
 21 42  1  0
 22 43  1  0
 26 44  1  0
M  END
>  <Name>  (845) 
Clauslactone A

>  <PubChem ID>  (845) 
10066950

>  <CDB ID>  (845) 
CDB0845

>  <Smiles>  (845) 
CC(CC1CC(=C)C(=O)O1)(C2COC3=C(O2)C4=C(C=C3)C=CC(=O)O4)O

>  <Chemical class>  (845) 
Geranylated linear furanocoumarins

>  <Natural source>  (845) 
Clausena lansium

>  <Molecular Formula>  (845) 
C19H18O7

>  <InChI-Key>  (845) 
QOASRYFWAJXZRX-UHFFFAOYSA-N

>  <Total Molweight>  (845) 
358.345

>  <cLogP>  (845) 
1.6389

>  <cLogS>  (845) 
-3.61

>  <H-Acceptors>  (845) 
7

>  <H-Donors>  (845) 
1

>  <Rotatable Bonds>  (845) 
3

>  <Polar Surface Area>  (845) 
91.29

$$$$
CDB0846
     RDKit          3D

 47 50  0  0  0  0  0  0  0  0999 V2000
    5.9202   -0.4046   -0.9519 C   0  0  0  0  0  0  0  0  0  0  0  0
    4.7935   -0.3312    0.0653 C   0  0  0  0  0  0  0  0  0  0  0  0
    4.1603    1.0452    0.1338 C   0  0  0  0  0  0  0  0  0  0  0  0
    2.7560    0.7161    0.6114 C   0  0  0  0  0  0  0  0  0  0  0  0
    2.4339   -0.5006   -0.0692 O   0  0  0  0  0  0  0  0  0  0  0  0
    3.5921   -1.1838   -0.3297 C   0  0  0  0  0  0  0  0  0  0  0  0
    3.6334   -2.3190   -0.7759 O   0  0  0  0  0  0  0  0  0  0  0  0
    1.7503    1.8077    0.2502 C   0  0  0  0  0  0  0  0  0  0  0  0
    0.3310    1.7107    0.8797 C   0  0  0  0  0  0  0  0  0  0  0  0
   -0.4694    2.9148    0.3364 C   0  0  0  0  0  0  0  0  0  0  0  0
   -0.4187    0.3677    0.5733 C   0  0  0  0  0  0  0  0  0  0  0  0
   -0.2067   -0.7311    1.6199 C   0  0  0  0  0  0  0  0  0  0  0  0
   -0.7747   -1.9729    1.1767 O   0  0  0  0  0  0  0  0  0  0  0  0
   -2.0404   -1.7968    0.6817 C   0  0  0  0  0  0  0  0  0  0  0  0
   -2.5659   -0.5426    0.3661 C   0  0  0  0  0  0  0  0  0  0  0  0
   -1.8448    0.6136    0.5091 O   0  0  0  0  0  0  0  0  0  0  0  0
   -3.8786   -0.4555   -0.0989 C   0  0  0  0  0  0  0  0  0  0  0  0
   -4.6612   -1.5973   -0.2791 C   0  0  0  0  0  0  0  0  0  0  0  0
   -4.1158   -2.8502    0.0149 C   0  0  0  0  0  0  0  0  0  0  0  0
   -2.8054   -2.9483    0.4933 C   0  0  0  0  0  0  0  0  0  0  0  0
   -6.0213   -1.4523   -0.7721 C   0  0  0  0  0  0  0  0  0  0  0  0
   -6.4951   -0.2339   -1.0490 C   0  0  0  0  0  0  0  0  0  0  0  0
   -5.6888    0.9871   -0.8766 C   0  0  0  0  0  0  0  0  0  0  0  0
   -6.1577    2.0861   -1.1500 O   0  0  0  0  0  0  0  0  0  0  0  0
   -4.3977    0.8227   -0.4007 O   0  0  0  0  0  0  0  0  0  0  0  0
    0.4381    1.9552    2.2918 O   0  0  0  0  0  0  0  0  0  0  0  0
    5.2821   -0.6885    1.3533 O   0  0  0  0  0  0  0  0  0  0  0  0
    5.5722   -0.1706   -1.9635 H   0  0  0  0  0  0  0  0  0  0  0  0
    6.3591   -1.4087   -0.9734 H   0  0  0  0  0  0  0  0  0  0  0  0
    6.7277    0.2873   -0.6888 H   0  0  0  0  0  0  0  0  0  0  0  0
    4.1240    1.5048   -0.8622 H   0  0  0  0  0  0  0  0  0  0  0  0
    4.6682    1.7308    0.8194 H   0  0  0  0  0  0  0  0  0  0  0  0
    2.7534    0.5244    1.6905 H   0  0  0  0  0  0  0  0  0  0  0  0
    1.6387    1.8302   -0.8425 H   0  0  0  0  0  0  0  0  0  0  0  0
    2.1888    2.7677    0.5558 H   0  0  0  0  0  0  0  0  0  0  0  0
   -1.4255    3.0296    0.8601 H   0  0  0  0  0  0  0  0  0  0  0  0
   -0.6614    2.8199   -0.7375 H   0  0  0  0  0  0  0  0  0  0  0  0
    0.0718    3.8534    0.5071 H   0  0  0  0  0  0  0  0  0  0  0  0
   -0.1275    0.0228   -0.4285 H   0  0  0  0  0  0  0  0  0  0  0  0
    0.8496   -0.9211    1.8156 H   0  0  0  0  0  0  0  0  0  0  0  0
   -0.6756   -0.4712    2.5783 H   0  0  0  0  0  0  0  0  0  0  0  0
   -4.6992   -3.7579   -0.1195 H   0  0  0  0  0  0  0  0  0  0  0  0
   -2.3830   -3.9219    0.7292 H   0  0  0  0  0  0  0  0  0  0  0  0
   -6.6339   -2.3366   -0.9082 H   0  0  0  0  0  0  0  0  0  0  0  0
   -7.5021   -0.0829   -1.4181 H   0  0  0  0  0  0  0  0  0  0  0  0
    1.0093    1.2928    2.7109 H   0  0  0  0  0  0  0  0  0  0  0  0
    5.5967   -1.6110    1.2939 H   0  0  0  0  0  0  0  0  0  0  0  0
  1  2  1  0
  2  3  1  0
  3  4  1  0
  4  5  1  0
  5  6  1  0
  6  7  2  0
  4  8  1  0
  8  9  1  0
  9 10  1  0
  9 11  1  0
 11 12  1  0
 12 13  1  0
 13 14  1  0
 14 15  2  0
 15 16  1  0
 15 17  1  0
 17 18  2  0
 18 19  1  0
 19 20  2  0
 18 21  1  0
 21 22  2  0
 22 23  1  0
 23 24  2  0
 23 25  1  0
  9 26  1  0
  2 27  1  0
  6  2  1  0
 16 11  1  0
 20 14  1  0
 25 17  1  0
  1 28  1  0
  1 29  1  0
  1 30  1  0
  3 31  1  0
  3 32  1  0
  4 33  1  0
  8 34  1  0
  8 35  1  0
 10 36  1  0
 10 37  1  0
 10 38  1  0
 11 39  1  0
 12 40  1  0
 12 41  1  0
 19 42  1  0
 20 43  1  0
 21 44  1  0
 22 45  1  0
 26 46  1  0
 27 47  1  0
M  END
>  <Name>  (846) 
Clauslactone B

>  <PubChem ID>  (846) 
10407168

>  <CDB ID>  (846) 
CDB0846

>  <Smiles>  (846) 
CC1(CC(OC1=O)CC(C)(C2COC3=C(O2)C4=C(C=C3)C=CC(=O)O4)O)O

>  <Chemical class>  (846) 
Geranylated linear furanocoumarins

>  <Natural source>  (846) 
Clausena lansium

>  <Molecular Formula>  (846) 
C19H20O8

>  <InChI-Key>  (846) 
KBLZMFGBGGWQCK-UHFFFAOYSA-N

>  <Total Molweight>  (846) 
376.36

>  <cLogP>  (846) 
0.8417

>  <cLogS>  (846) 
-3.257

>  <H-Acceptors>  (846) 
8

>  <H-Donors>  (846) 
2

>  <Rotatable Bonds>  (846) 
3

>  <Polar Surface Area>  (846) 
111.52

$$$$
CDB0847
     RDKit          3D

 48 51  0  0  0  0  0  0  0  0999 V2000
   -0.2983   -1.1116   -2.3496 C   0  0  0  0  0  0  0  0  0  0  0  0
   -0.5636   -1.2414   -0.8432 C   0  0  0  0  0  0  0  0  0  0  0  0
   -1.3179    0.0006   -0.2868 C   0  0  0  0  0  0  0  0  0  0  0  0
   -2.6063    0.3848   -1.0306 C   0  0  0  0  0  0  0  0  0  0  0  0
   -3.3861    1.5141   -0.3746 C   0  0  0  0  0  0  0  0  0  0  0  0
   -4.3310    0.7894    0.5623 C   0  0  0  0  0  0  0  0  0  0  0  0
   -4.5010   -0.5442   -0.1472 C   0  0  0  0  0  0  0  0  0  0  0  0
   -5.3895   -1.3559    0.0683 O   0  0  0  0  0  0  0  0  0  0  0  0
   -3.5150   -0.7214   -1.0777 O   0  0  0  0  0  0  0  0  0  0  0  0
   -5.6872    1.4826    0.7062 C   0  0  0  0  0  0  0  0  0  0  0  0
   -6.4633    0.8205    1.7124 O   0  0  0  0  0  0  0  0  0  0  0  0
   -3.7306    0.6493    1.8452 O   0  0  0  0  0  0  0  0  0  0  0  0
    0.7571   -1.4242   -0.0368 C   0  0  0  0  0  0  0  0  0  0  0  0
    1.5119   -2.7152   -0.3651 C   0  0  0  0  0  0  0  0  0  0  0  0
    2.6421   -2.8745    0.5094 O   0  0  0  0  0  0  0  0  0  0  0  0
    3.3558   -1.7113    0.6347 C   0  0  0  0  0  0  0  0  0  0  0  0
    2.8634   -0.4642    0.2457 C   0  0  0  0  0  0  0  0  0  0  0  0
    1.6100   -0.2899   -0.2775 O   0  0  0  0  0  0  0  0  0  0  0  0
    3.6807    0.6591    0.3833 C   0  0  0  0  0  0  0  0  0  0  0  0
    4.9627    0.5637    0.9263 C   0  0  0  0  0  0  0  0  0  0  0  0
    5.4354   -0.6852    1.3372 C   0  0  0  0  0  0  0  0  0  0  0  0
    4.6309   -1.8202    1.1921 C   0  0  0  0  0  0  0  0  0  0  0  0
    5.7683    1.7675    1.0536 C   0  0  0  0  0  0  0  0  0  0  0  0
    5.2694    2.9402    0.6513 C   0  0  0  0  0  0  0  0  0  0  0  0
    3.9194    3.0702    0.0762 C   0  0  0  0  0  0  0  0  0  0  0  0
    3.4956    4.1628   -0.2830 O   0  0  0  0  0  0  0  0  0  0  0  0
    3.1712    1.9089   -0.0334 O   0  0  0  0  0  0  0  0  0  0  0  0
   -1.3705   -2.4090   -0.6407 O   0  0  0  0  0  0  0  0  0  0  0  0
    0.2695   -0.2067   -2.5871 H   0  0  0  0  0  0  0  0  0  0  0  0
   -1.2334   -1.0953   -2.9196 H   0  0  0  0  0  0  0  0  0  0  0  0
    0.2503   -1.9775   -2.7337 H   0  0  0  0  0  0  0  0  0  0  0  0
   -1.5686   -0.2176    0.7586 H   0  0  0  0  0  0  0  0  0  0  0  0
   -0.6548    0.8743   -0.2859 H   0  0  0  0  0  0  0  0  0  0  0  0
   -2.3649    0.6756   -2.0585 H   0  0  0  0  0  0  0  0  0  0  0  0
   -3.9551    2.0409   -1.1515 H   0  0  0  0  0  0  0  0  0  0  0  0
   -2.7361    2.2407    0.1229 H   0  0  0  0  0  0  0  0  0  0  0  0
   -5.5529    2.5148    1.0459 H   0  0  0  0  0  0  0  0  0  0  0  0
   -6.2597    1.4930   -0.2273 H   0  0  0  0  0  0  0  0  0  0  0  0
   -6.6992   -0.0640    1.3621 H   0  0  0  0  0  0  0  0  0  0  0  0
   -4.4575    0.3986    2.4533 H   0  0  0  0  0  0  0  0  0  0  0  0
    0.5102   -1.4364    1.0355 H   0  0  0  0  0  0  0  0  0  0  0  0
    1.8889   -2.7257   -1.3945 H   0  0  0  0  0  0  0  0  0  0  0  0
    0.8751   -3.5940   -0.2255 H   0  0  0  0  0  0  0  0  0  0  0  0
    6.4279   -0.7921    1.7684 H   0  0  0  0  0  0  0  0  0  0  0  0
    5.0015   -2.7934    1.5049 H   0  0  0  0  0  0  0  0  0  0  0  0
    6.7652    1.6968    1.4747 H   0  0  0  0  0  0  0  0  0  0  0  0
    5.8373    3.8593    0.7294 H   0  0  0  0  0  0  0  0  0  0  0  0
   -2.2572   -2.2365   -1.0143 H   0  0  0  0  0  0  0  0  0  0  0  0
  1  2  1  0
  2  3  1  0
  3  4  1  0
  4  5  1  0
  5  6  1  0
  6  7  1  0
  7  8  2  0
  7  9  1  0
  6 10  1  0
 10 11  1  0
  6 12  1  0
  2 13  1  0
 13 14  1  0
 14 15  1  0
 15 16  1  0
 16 17  2  0
 17 18  1  0
 17 19  1  0
 19 20  2  0
 20 21  1  0
 21 22  2  0
 20 23  1  0
 23 24  2  0
 24 25  1  0
 25 26  2  0
 25 27  1  0
  2 28  1  0
  9  4  1  0
 18 13  1  0
 22 16  1  0
 27 19  1  0
  1 29  1  0
  1 30  1  0
  1 31  1  0
  3 32  1  0
  3 33  1  0
  4 34  1  0
  5 35  1  0
  5 36  1  0
 10 37  1  0
 10 38  1  0
 11 39  1  0
 12 40  1  0
 13 41  1  0
 14 42  1  0
 14 43  1  0
 21 44  1  0
 22 45  1  0
 23 46  1  0
 24 47  1  0
 28 48  1  0
M  END
>  <Name>  (847) 
Clauslactone D

>  <PubChem ID>  (847) 
10023398

>  <CDB ID>  (847) 
CDB0847

>  <Smiles>  (847) 
CC(CC1CC(C(=O)O1)(CO)O)(C2COC3=C(O2)C4=C(C=C3)C=CC(=O)O4)O

>  <Chemical class>  (847) 
Geranylated linear furanocoumarins

>  <Natural source>  (847) 
Clausena lansium

>  <Molecular Formula>  (847) 
C19H20O9

>  <InChI-Key>  (847) 
GOTGCQAKGMYEPD-UHFFFAOYSA-N

>  <Total Molweight>  (847) 
392.359

>  <cLogP>  (847) 
-0.085

>  <cLogS>  (847) 
-2.75

>  <H-Acceptors>  (847) 
9

>  <H-Donors>  (847) 
3

>  <Rotatable Bonds>  (847) 
4

>  <Polar Surface Area>  (847) 
131.75

$$$$
CDB0848
     RDKit          3D

 43 45  0  0  0  0  0  0  0  0999 V2000
    5.9236    1.9507   -1.2701 C   0  0  0  0  0  0  0  0  0  0  0  0
    5.2053    1.1306   -0.4963 C   0  0  0  0  0  0  0  0  0  0  0  0
    3.7912    1.2564   -0.0788 C   0  0  0  0  0  0  0  0  0  0  0  0
    3.4500   -0.2033    0.1599 C   0  0  2  0  0  0  0  0  0  0  0  0
    2.3539   -0.3698    1.2189 C   0  0  0  0  0  0  0  0  0  0  0  0
    1.8181   -1.7867    1.3098 C   0  0  0  0  0  0  0  0  0  0  0  0
    2.6034   -2.7185    2.1997 C   0  0  0  0  0  0  0  0  0  0  0  0
    0.6937   -2.2161    0.7003 C   0  0  0  0  0  0  0  0  0  0  0  0
   -0.2031   -1.4564   -0.2319 C   0  0  0  0  0  0  0  0  0  0  0  0
   -1.4140   -1.1922    0.4716 O   0  0  0  0  0  0  0  0  0  0  0  0
   -2.3735   -0.4692   -0.1882 C   0  0  0  0  0  0  0  0  0  0  0  0
   -3.4759   -0.1046    0.5941 C   0  0  0  0  0  0  0  0  0  0  0  0
   -3.5201   -0.4713    1.9132 O   0  0  0  0  0  0  0  0  0  0  0  0
   -4.5226    0.6296    0.0425 C   0  0  0  0  0  0  0  0  0  0  0  0
   -4.4951    1.0113   -1.2966 C   0  0  0  0  0  0  0  0  0  0  0  0
   -5.6076    1.7754   -1.8371 C   0  0  0  0  0  0  0  0  0  0  0  0
   -6.6310    2.0974   -1.0405 C   0  0  0  0  0  0  0  0  0  0  0  0
   -6.6829    1.7078    0.3801 C   0  0  0  0  0  0  0  0  0  0  0  0
   -7.6401    2.0269    1.0760 O   0  0  0  0  0  0  0  0  0  0  0  0
   -5.6107    0.9786    0.8685 O   0  0  0  0  0  0  0  0  0  0  0  0
   -3.3990    0.6465   -2.0839 C   0  0  0  0  0  0  0  0  0  0  0  0
   -2.3413   -0.0921   -1.5326 C   0  0  0  0  0  0  0  0  0  0  0  0
    4.6770   -0.8114    0.5938 O   0  0  0  0  0  0  0  0  0  0  0  0
    5.7349   -0.1279    0.0752 C   0  0  0  0  0  0  0  0  0  0  0  0
    6.8975   -0.4825    0.0989 O   0  0  0  0  0  0  0  0  0  0  0  0
    6.9621    1.7291   -1.5051 H   0  0  0  0  0  0  0  0  0  0  0  0
    5.4997    2.8613   -1.6791 H   0  0  0  0  0  0  0  0  0  0  0  0
    3.7336    1.8430    0.8453 H   0  0  0  0  0  0  0  0  0  0  0  0
    3.1420    1.7101   -0.8329 H   0  0  0  0  0  0  0  0  0  0  0  0
    3.1482   -0.6895   -0.7781 H   0  0  0  0  0  0  0  0  0  0  0  0
    2.7396   -0.0805    2.2054 H   0  0  0  0  0  0  0  0  0  0  0  0
    1.5321    0.3244    1.0073 H   0  0  0  0  0  0  0  0  0  0  0  0
    2.6953   -2.2969    3.2060 H   0  0  0  0  0  0  0  0  0  0  0  0
    2.1234   -3.6981    2.2980 H   0  0  0  0  0  0  0  0  0  0  0  0
    3.6064   -2.8846    1.7965 H   0  0  0  0  0  0  0  0  0  0  0  0
    0.3731   -3.2444    0.8677 H   0  0  0  0  0  0  0  0  0  0  0  0
   -0.4016   -2.0901   -1.1047 H   0  0  0  0  0  0  0  0  0  0  0  0
    0.2597   -0.5231   -0.5688 H   0  0  0  0  0  0  0  0  0  0  0  0
   -2.7000   -0.9766    2.0744 H   0  0  0  0  0  0  0  0  0  0  0  0
   -5.5932    2.0734   -2.8795 H   0  0  0  0  0  0  0  0  0  0  0  0
   -7.4801    2.6648   -1.4015 H   0  0  0  0  0  0  0  0  0  0  0  0
   -3.3558    0.9284   -3.1339 H   0  0  0  0  0  0  0  0  0  0  0  0
   -1.5164   -0.3598   -2.1848 H   0  0  0  0  0  0  0  0  0  0  0  0
  1  2  2  0
  2  3  1  0
  3  4  1  0
  4  5  1  0
  5  6  1  0
  6  7  1  0
  6  8  2  3
  8  9  1  0
  9 10  1  0
 10 11  1  0
 11 12  2  0
 12 13  1  0
 12 14  1  0
 14 15  2  0
 15 16  1  0
 16 17  2  0
 17 18  1  0
 18 19  2  0
 18 20  1  0
 15 21  1  0
 21 22  2  0
  4 23  1  0
 23 24  1  0
 24 25  2  0
 24  2  1  0
 22 11  1  0
 20 14  1  0
  1 26  1  0
  1 27  1  0
  3 28  1  0
  3 29  1  0
  4 30  1  6
  5 31  1  0
  5 32  1  0
  7 33  1  0
  7 34  1  0
  7 35  1  0
  8 36  1  0
  9 37  1  0
  9 38  1  0
 13 39  1  0
 16 40  1  0
 17 41  1  0
 21 42  1  0
 22 43  1  0
M  END
>  <Name>  (848) 
Clauslactone E

>  <PubChem ID>  (848) 
10450031

>  <CDB ID>  (848) 
CDB0848

>  <Smiles>  (848) 
C=C1C[C@H](CC(C)=CCOC2=C(O)C3=C(C=CC(=O)O3)C=C2)OC1=O

>  <Chemical class>  (848) 
Geranylated linear furanocoumarins

>  <Natural source>  (848) 
Clausena lansium

>  <Molecular Formula>  (848) 
C19H18O6

>  <InChI-Key>  (848) 
WWTBMZAWBGEHRW-AWEZNQCLSA-N

>  <Total Molweight>  (848) 
342.346

>  <cLogP>  (848) 
2.7758

>  <cLogS>  (848) 
-3.528

>  <H-Acceptors>  (848) 
6

>  <H-Donors>  (848) 
1

>  <Rotatable Bonds>  (848) 
5

>  <Polar Surface Area>  (848) 
82.06

$$$$
CDB0849
     RDKit          3D

 43 46  0  0  0  0  0  0  0  0999 V2000
   -1.3868   -0.9921    0.2994 C   0  0  0  0  0  0  0  0  0  0  0  0
   -1.7066    0.1980   -0.5551 C   0  0  0  0  0  0  0  0  0  0  0  0
   -0.6540    0.8181   -1.4684 C   0  0  0  0  0  0  0  0  0  0  0  0
   -1.6668   -0.0642   -1.9694 O   0  0  0  0  0  0  0  0  0  0  0  0
    0.7446    0.3106   -1.6072 C   0  0  0  0  0  0  0  0  0  0  0  0
    1.4852    0.7492   -0.4694 O   0  0  0  0  0  0  0  0  0  0  0  0
    2.7998    0.3817   -0.3971 C   0  0  0  0  0  0  0  0  0  0  0  0
    3.4639    0.8222    0.7488 C   0  0  0  0  0  0  0  0  0  0  0  0
    4.8087    0.5078    0.9298 C   0  0  0  0  0  0  0  0  0  0  0  0
    5.5154   -0.2400   -0.0073 C   0  0  0  0  0  0  0  0  0  0  0  0
    4.8518   -0.6797   -1.1528 C   0  0  0  0  0  0  0  0  0  0  0  0
    3.4981   -0.3692   -1.3475 C   0  0  0  0  0  0  0  0  0  0  0  0
    6.9165   -0.5369    0.2387 C   0  0  0  0  0  0  0  0  0  0  0  0
    7.4967   -0.0859    1.3550 C   0  0  0  0  0  0  0  0  0  0  0  0
    6.7692    0.7098    2.3600 C   0  0  0  0  0  0  0  0  0  0  0  0
    7.3367    1.1086    3.3704 O   0  0  0  0  0  0  0  0  0  0  0  0
    5.4317    0.9775    2.1026 O   0  0  0  0  0  0  0  0  0  0  0  0
   -2.8765    1.0611   -0.1341 C   0  0  0  0  0  0  0  0  0  0  0  0
   -4.2152    0.3205   -0.1918 C   0  0  0  0  0  0  0  0  0  0  0  0
   -5.3972    1.2724   -0.2008 C   0  0  0  0  0  0  0  0  0  0  0  0
   -6.4207    0.4277    0.4544 C   0  0  0  0  0  0  0  0  0  0  0  0
   -7.7509    0.4818    0.3328 C   0  0  0  0  0  0  0  0  0  0  0  0
   -5.7152   -0.5692    1.2904 C   0  0  0  0  0  0  0  0  0  0  0  0
   -6.2145   -1.3116    2.1135 O   0  0  0  0  0  0  0  0  0  0  0  0
   -4.3897   -0.4835    0.9874 O   0  0  0  0  0  0  0  0  0  0  0  0
   -1.2543   -0.6841    1.3415 H   0  0  0  0  0  0  0  0  0  0  0  0
   -0.4744   -1.5084   -0.0093 H   0  0  0  0  0  0  0  0  0  0  0  0
   -2.1957   -1.7278    0.2575 H   0  0  0  0  0  0  0  0  0  0  0  0
   -0.7260    1.8731   -1.7008 H   0  0  0  0  0  0  0  0  0  0  0  0
    1.1770    0.7371   -2.5203 H   0  0  0  0  0  0  0  0  0  0  0  0
    0.7624   -0.7826   -1.6826 H   0  0  0  0  0  0  0  0  0  0  0  0
    2.9356    1.4067    1.4968 H   0  0  0  0  0  0  0  0  0  0  0  0
    5.3736   -1.2662   -1.9054 H   0  0  0  0  0  0  0  0  0  0  0  0
    3.0219   -0.7311   -2.2534 H   0  0  0  0  0  0  0  0  0  0  0  0
    7.4717   -1.1208   -0.4869 H   0  0  0  0  0  0  0  0  0  0  0  0
    8.5381   -0.2841    1.5778 H   0  0  0  0  0  0  0  0  0  0  0  0
   -2.9259    1.9386   -0.7912 H   0  0  0  0  0  0  0  0  0  0  0  0
   -2.6877    1.4279    0.8822 H   0  0  0  0  0  0  0  0  0  0  0  0
   -4.2495   -0.3493   -1.0615 H   0  0  0  0  0  0  0  0  0  0  0  0
   -5.6609    1.5879   -1.2142 H   0  0  0  0  0  0  0  0  0  0  0  0
   -5.2076    2.1596    0.4143 H   0  0  0  0  0  0  0  0  0  0  0  0
   -8.2328    1.2205   -0.2985 H   0  0  0  0  0  0  0  0  0  0  0  0
   -8.3895   -0.2143    0.8714 H   0  0  0  0  0  0  0  0  0  0  0  0
  1  2  1  0
  2  3  1  0
  3  4  1  0
  3  5  1  0
  5  6  1  0
  6  7  1  0
  7  8  2  0
  8  9  1  0
  9 10  2  0
 10 11  1  0
 11 12  2  0
 10 13  1  0
 13 14  2  0
 14 15  1  0
 15 16  2  0
 15 17  1  0
  2 18  1  0
 18 19  1  0
 19 20  1  0
 20 21  1  0
 21 22  2  0
 21 23  1  0
 23 24  2  0
 23 25  1  0
  4  2  1  0
 12  7  1  0
 17  9  1  0
 25 19  1  0
  1 26  1  0
  1 27  1  0
  1 28  1  0
  3 29  1  0
  5 30  1  0
  5 31  1  0
  8 32  1  0
 11 33  1  0
 12 34  1  0
 13 35  1  0
 14 36  1  0
 18 37  1  0
 18 38  1  0
 19 39  1  0
 20 40  1  0
 20 41  1  0
 22 42  1  0
 22 43  1  0
M  END
>  <Name>  (849) 
Clauslactone F

>  <PubChem ID>  (849) 
44558962

>  <CDB ID>  (849) 
CDB0849

>  <Smiles>  (849) 
CC1(C(O1)COC2=CC3=C(C=C2)C=CC(=O)O3)CC4CC(=C)C(=O)O4

>  <Chemical class>  (849) 
Geranylated linear furanocoumarins

>  <Natural source>  (849) 
Clausena lansium

>  <Molecular Formula>  (849) 
C19H18O6

>  <InChI-Key>  (849) 
BSQOZNKTJBOYCC-UHFFFAOYSA-N

>  <Total Molweight>  (849) 
342.346

>  <cLogP>  (849) 
1.6907

>  <cLogS>  (849) 
-3.72

>  <H-Acceptors>  (849) 
6

>  <H-Donors>  (849) 
0

>  <Rotatable Bonds>  (849) 
5

>  <Polar Surface Area>  (849) 
74.36

$$$$
CDB0850
     RDKit          3D

 44 47  0  0  0  0  0  0  0  0999 V2000
   -2.4108   -2.0991    0.2307 C   0  0  0  0  0  0  0  0  0  0  0  0
   -1.7644   -1.3151    1.3346 C   0  0  0  0  0  0  0  0  0  0  0  0
   -0.5324   -1.8144    2.0854 C   0  0  0  0  0  0  0  0  0  0  0  0
   -1.8629   -1.9809    2.6037 O   0  0  0  0  0  0  0  0  0  0  0  0
    0.1844   -3.0923    1.7775 C   0  0  0  0  0  0  0  0  0  0  0  0
    1.5626   -2.8483    1.4470 O   0  0  0  0  0  0  0  0  0  0  0  0
    1.7789   -2.1271    0.3053 C   0  0  0  0  0  0  0  0  0  0  0  0
    1.0996   -2.3330   -0.8915 C   0  0  0  0  0  0  0  0  0  0  0  0
    1.3848   -1.5063   -1.9772 C   0  0  0  0  0  0  0  0  0  0  0  0
    2.3475   -0.5014   -1.9064 C   0  0  0  0  0  0  0  0  0  0  0  0
    3.0541   -0.3304   -0.7169 C   0  0  0  0  0  0  0  0  0  0  0  0
    2.7739   -1.1483    0.3824 C   0  0  0  0  0  0  0  0  0  0  0  0
    2.5801    0.3365   -3.0703 C   0  0  0  0  0  0  0  0  0  0  0  0
    1.8678    0.1300   -4.1820 C   0  0  0  0  0  0  0  0  0  0  0  0
    0.8431   -0.9240   -4.2796 C   0  0  0  0  0  0  0  0  0  0  0  0
    0.1965   -1.0750   -5.3098 O   0  0  0  0  0  0  0  0  0  0  0  0
    0.6460   -1.7187   -3.1585 O   0  0  0  0  0  0  0  0  0  0  0  0
   -2.0887    0.1614    1.4020 C   0  0  0  0  0  0  0  0  0  0  0  0
   -1.4725    0.9391    0.2349 C   0  0  0  0  0  0  0  0  0  0  0  0
   -1.8609    2.3678    0.2255 C   0  0  0  0  0  0  0  0  0  0  0  0
   -0.7919    3.1584    0.3212 C   0  0  0  0  0  0  0  0  0  0  0  0
    0.3730    2.2754    0.4137 C   0  0  0  0  0  0  0  0  0  0  0  0
    1.5290    2.6434    0.5146 O   0  0  0  0  0  0  0  0  0  0  0  0
   -0.0482    0.9829    0.3756 O   0  0  0  0  0  0  0  0  0  0  0  0
   -0.6331    4.6283    0.3416 C   0  0  0  0  0  0  0  0  0  0  0  0
   -1.9058    5.2666    0.3625 O   0  0  0  0  0  0  0  0  0  0  0  0
   -3.4603   -1.8073    0.1178 H   0  0  0  0  0  0  0  0  0  0  0  0
   -2.3969   -3.1768    0.4211 H   0  0  0  0  0  0  0  0  0  0  0  0
   -1.9049   -1.9153   -0.7211 H   0  0  0  0  0  0  0  0  0  0  0  0
    0.1007   -1.1057    2.6059 H   0  0  0  0  0  0  0  0  0  0  0  0
    0.2008   -3.7014    2.6886 H   0  0  0  0  0  0  0  0  0  0  0  0
   -0.2971   -3.7082    1.0128 H   0  0  0  0  0  0  0  0  0  0  0  0
    0.3627   -3.1193   -1.0026 H   0  0  0  0  0  0  0  0  0  0  0  0
    3.8075    0.4475   -0.6196 H   0  0  0  0  0  0  0  0  0  0  0  0
    3.3147   -0.9995    1.3140 H   0  0  0  0  0  0  0  0  0  0  0  0
    3.3270    1.1210   -3.0156 H   0  0  0  0  0  0  0  0  0  0  0  0
    2.0090    0.7340   -5.0699 H   0  0  0  0  0  0  0  0  0  0  0  0
   -3.1794    0.2821    1.4010 H   0  0  0  0  0  0  0  0  0  0  0  0
   -1.7246    0.5722    2.3535 H   0  0  0  0  0  0  0  0  0  0  0  0
   -1.7099    0.4757   -0.7286 H   0  0  0  0  0  0  0  0  0  0  0  0
   -2.8787    2.7178    0.1225 H   0  0  0  0  0  0  0  0  0  0  0  0
   -0.0674    4.9578    1.2191 H   0  0  0  0  0  0  0  0  0  0  0  0
   -0.1044    4.9655   -0.5551 H   0  0  0  0  0  0  0  0  0  0  0  0
   -2.2482    5.1848    1.2689 H   0  0  0  0  0  0  0  0  0  0  0  0
  1  2  1  0
  2  3  1  0
  3  4  1  0
  3  5  1  0
  5  6  1  0
  6  7  1  0
  7  8  2  0
  8  9  1  0
  9 10  2  0
 10 11  1  0
 11 12  2  0
 10 13  1  0
 13 14  2  0
 14 15  1  0
 15 16  2  0
 15 17  1  0
  2 18  1  0
 18 19  1  0
 19 20  1  0
 20 21  2  0
 21 22  1  0
 22 23  2  0
 22 24  1  0
 21 25  1  0
 25 26  1  0
  4  2  1  0
 12  7  1  0
 17  9  1  0
 24 19  1  0
  1 27  1  0
  1 28  1  0
  1 29  1  0
  3 30  1  0
  5 31  1  0
  5 32  1  0
  8 33  1  0
 11 34  1  0
 12 35  1  0
 13 36  1  0
 14 37  1  0
 18 38  1  0
 18 39  1  0
 19 40  1  0
 20 41  1  0
 25 42  1  0
 25 43  1  0
 26 44  1  0
M  END
>  <Name>  (850) 
Clauslactone J

>  <PubChem ID>  (850) 
44558958

>  <CDB ID>  (850) 
CDB0850

>  <Smiles>  (850) 
CC1(C(O1)COC2=CC3=C(C=C2)C=CC(=O)O3)CC4C=C(C(=O)O4)CO

>  <Chemical class>  (850) 
Geranylated linear furanocoumarins

>  <Natural source>  (850) 
Clausena lansium

>  <Molecular Formula>  (850) 
C19H18O7

>  <InChI-Key>  (850) 
SREZIYPRWBLGDH-UHFFFAOYSA-N

>  <Total Molweight>  (850) 
358.345

>  <cLogP>  (850) 
0.6857

>  <cLogS>  (850) 
-3.046

>  <H-Acceptors>  (850) 
7

>  <H-Donors>  (850) 
1

>  <Rotatable Bonds>  (850) 
6

>  <Polar Surface Area>  (850) 
94.59

$$$$
CDB0851
     RDKit          3D

 47 49  0  0  0  0  0  0  0  0999 V2000
    5.7132   -1.0503    0.4884 C   0  0  0  0  0  0  0  0  0  0  0  0
    4.5561   -1.9615    0.1841 C   0  0  0  0  0  0  0  0  0  0  0  0
    3.2747   -1.5666    0.0526 C   0  0  0  0  0  0  0  0  0  0  0  0
    2.7194   -0.1775    0.2217 C   0  0  0  0  0  0  0  0  0  0  0  0
    2.4354    0.4787   -1.1333 C   0  0  0  0  0  0  0  0  0  0  0  0
    1.8383    1.8623   -0.9854 C   0  0  0  0  0  0  0  0  0  0  0  0
    0.5158    2.1263   -1.0121 C   0  0  0  0  0  0  0  0  0  0  0  0
   -0.6173    1.1470   -1.1379 C   0  0  0  0  0  0  0  0  0  0  0  0
   -1.5444    1.4491   -0.0961 O   0  0  0  0  0  0  0  0  0  0  0  0
   -2.6704    0.6501   -0.0131 C   0  0  0  0  0  0  0  0  0  0  0  0
   -3.5593    0.9171    1.0437 C   0  0  0  0  0  0  0  0  0  0  0  0
   -4.7363    0.1940    1.2539 C   0  0  0  0  0  0  0  0  0  0  0  0
   -5.0753   -0.8519    0.3857 C   0  0  0  0  0  0  0  0  0  0  0  0
   -4.2157   -1.1519   -0.6889 C   0  0  0  0  0  0  0  0  0  0  0  0
   -3.0504   -0.4022   -0.8588 C   0  0  0  0  0  0  0  0  0  0  0  0
   -2.3767   -0.8625   -1.9560 O   0  0  0  0  0  0  0  0  0  0  0  0
   -3.0928   -1.8878   -2.4795 C   0  0  0  0  0  0  0  0  0  0  0  0
   -4.2298   -2.1074   -1.7409 C   0  0  0  0  0  0  0  0  0  0  0  0
   -5.5942    0.5418    2.3772 C   0  0  0  0  0  0  0  0  0  0  0  0
   -5.2501    1.5445    3.1902 C   0  0  0  0  0  0  0  0  0  0  0  0
   -4.0198    2.3301    2.9995 C   0  0  0  0  0  0  0  0  0  0  0  0
   -3.7391    3.2448    3.7650 O   0  0  0  0  0  0  0  0  0  0  0  0
   -3.2198    1.9779    1.9249 O   0  0  0  0  0  0  0  0  0  0  0  0
    2.8386    2.9769   -0.8187 C   0  0  0  0  0  0  0  0  0  0  0  0
    4.9350   -3.4096    0.0150 C   0  0  0  0  0  0  0  0  0  0  0  0
    6.1250   -1.2819    1.4760 H   0  0  0  0  0  0  0  0  0  0  0  0
    5.4467    0.0090    0.4738 H   0  0  0  0  0  0  0  0  0  0  0  0
    6.5052   -1.1874   -0.2559 H   0  0  0  0  0  0  0  0  0  0  0  0
    2.5212   -2.3173   -0.1866 H   0  0  0  0  0  0  0  0  0  0  0  0
    1.7897   -0.2552    0.8003 H   0  0  0  0  0  0  0  0  0  0  0  0
    3.3863    0.4498    0.8217 H   0  0  0  0  0  0  0  0  0  0  0  0
    1.7768   -0.1632   -1.7309 H   0  0  0  0  0  0  0  0  0  0  0  0
    3.3636    0.5504   -1.7162 H   0  0  0  0  0  0  0  0  0  0  0  0
    0.1882    3.1608   -0.9147 H   0  0  0  0  0  0  0  0  0  0  0  0
   -0.2664    0.1171   -1.0303 H   0  0  0  0  0  0  0  0  0  0  0  0
   -1.0893    1.2970   -2.1153 H   0  0  0  0  0  0  0  0  0  0  0  0
   -5.9849   -1.4283    0.5285 H   0  0  0  0  0  0  0  0  0  0  0  0
   -2.6707   -2.3506   -3.3611 H   0  0  0  0  0  0  0  0  0  0  0  0
   -4.9786   -2.8621   -1.9354 H   0  0  0  0  0  0  0  0  0  0  0  0
   -6.5071   -0.0203    2.5414 H   0  0  0  0  0  0  0  0  0  0  0  0
   -5.8635    1.8315    4.0356 H   0  0  0  0  0  0  0  0  0  0  0  0
    3.5047    3.0216   -1.6865 H   0  0  0  0  0  0  0  0  0  0  0  0
    2.3568    3.9554   -0.7205 H   0  0  0  0  0  0  0  0  0  0  0  0
    3.4452    2.8160    0.0781 H   0  0  0  0  0  0  0  0  0  0  0  0
    4.0683   -4.0442   -0.1981 H   0  0  0  0  0  0  0  0  0  0  0  0
    5.4059   -3.7866    0.9288 H   0  0  0  0  0  0  0  0  0  0  0  0
    5.6416   -3.5229   -0.8137 H   0  0  0  0  0  0  0  0  0  0  0  0
  1  2  1  0
  2  3  2  3
  3  4  1  0
  4  5  1  0
  5  6  1  0
  6  7  2  3
  7  8  1  0
  8  9  1  0
  9 10  1  0
 10 11  1  0
 11 12  2  0
 12 13  1  0
 13 14  2  0
 14 15  1  0
 15 16  1  0
 16 17  1  0
 17 18  2  0
 12 19  1  0
 19 20  2  0
 20 21  1  0
 21 22  2  0
 21 23  1  0
  6 24  1  0
  2 25  1  0
 15 10  2  0
 23 11  1  0
 18 14  1  0
  1 26  1  0
  1 27  1  0
  1 28  1  0
  3 29  1  0
  4 30  1  0
  4 31  1  0
  5 32  1  0
  5 33  1  0
  7 34  1  0
  8 35  1  0
  8 36  1  0
 13 37  1  0
 17 38  1  0
 18 39  1  0
 19 40  1  0
 20 41  1  0
 24 42  1  0
 24 43  1  0
 24 44  1  0
 25 45  1  0
 25 46  1  0
 25 47  1  0
M  END
>  <Name>  (851) 
8-Geranyloxypsoralen

>  <PubChem ID>  (851) 
5317564

>  <CDB ID>  (851) 
CDB0851

>  <Smiles>  (851) 
CC(=CCCC(=CCOC1=C2C(=CC3=C1OC=C3)C=CC(=O)O2)C)C

>  <Chemical class>  (851) 
Geranylated linear furanocoumarins

>  <Natural source>  (851) 
Clausena lansium

>  <Molecular Formula>  (851) 
C21H22O4

>  <InChI-Key>  (851) 
SOVNCTNQAWWYAQ-UHFFFAOYSA-N

>  <Total Molweight>  (851) 
338.402

>  <cLogP>  (851) 
5.7201

>  <cLogS>  (851) 
-5.259

>  <H-Acceptors>  (851) 
4

>  <H-Donors>  (851) 
0

>  <Rotatable Bonds>  (851) 
6

>  <Polar Surface Area>  (851) 
48.67

$$$$
CDB0852
     RDKit          3D

 45 48  0  0  0  0  0  0  0  0999 V2000
   -1.8397   -0.0063    1.7593 C   0  0  0  0  0  0  0  0  0  0  0  0
   -1.7660   -0.0440    0.2554 C   0  0  0  0  0  0  0  0  0  0  0  0
   -0.6704    0.2694   -0.4676 C   0  0  0  0  0  0  0  0  0  0  0  0
    0.6736    0.7405    0.0143 C   0  0  0  0  0  0  0  0  0  0  0  0
    1.6441   -0.1426   -0.5446 O   0  0  0  0  0  0  0  0  0  0  0  0
    2.9671    0.0979   -0.2210 C   0  0  0  0  0  0  0  0  0  0  0  0
    3.4948    1.1467    0.5458 C   0  0  0  0  0  0  0  0  0  0  0  0
    2.8006    2.1640    1.1396 O   0  0  0  0  0  0  0  0  0  0  0  0
    3.6958    2.9543    1.7817 C   0  0  0  0  0  0  0  0  0  0  0  0
    4.9708    2.4710    1.6156 C   0  0  0  0  0  0  0  0  0  0  0  0
    4.8557    1.3017    0.8161 C   0  0  0  0  0  0  0  0  0  0  0  0
    5.7703    0.3643    0.2978 C   0  0  0  0  0  0  0  0  0  0  0  0
    5.2873   -0.6971   -0.4785 C   0  0  0  0  0  0  0  0  0  0  0  0
    3.9163   -0.8108   -0.7228 C   0  0  0  0  0  0  0  0  0  0  0  0
    3.4302   -1.8858   -1.5132 O   0  0  0  0  0  0  0  0  0  0  0  0
    4.2725   -2.8396   -2.0608 C   0  0  0  0  0  0  0  0  0  0  0  0
    3.8653   -3.7678   -2.7494 O   0  0  0  0  0  0  0  0  0  0  0  0
    5.7094   -2.6899   -1.7778 C   0  0  0  0  0  0  0  0  0  0  0  0
    6.1941   -1.6889   -1.0377 C   0  0  0  0  0  0  0  0  0  0  0  0
   -3.0347   -0.5142   -0.4453 C   0  0  0  0  0  0  0  0  0  0  0  0
   -4.1847    0.5033   -0.3697 C   0  0  1  0  0  0  0  0  0  0  0  0
   -5.2962    0.1748   -1.2952 C   0  0  0  0  0  0  0  0  0  0  0  0
   -6.4270   -0.0496   -0.6291 C   0  0  0  0  0  0  0  0  0  0  0  0
   -7.7765   -0.4043   -1.1152 C   0  0  0  0  0  0  0  0  0  0  0  0
   -6.1173    0.1242    0.7938 C   0  0  0  0  0  0  0  0  0  0  0  0
   -6.9077   -0.0074    1.7099 O   0  0  0  0  0  0  0  0  0  0  0  0
   -4.8053    0.4610    0.9219 O   0  0  0  0  0  0  0  0  0  0  0  0
   -2.3144   -0.9174    2.1392 H   0  0  0  0  0  0  0  0  0  0  0  0
   -2.4273    0.8553    2.0905 H   0  0  0  0  0  0  0  0  0  0  0  0
   -0.8605    0.0546    2.2386 H   0  0  0  0  0  0  0  0  0  0  0  0
   -0.7228    0.1884   -1.5532 H   0  0  0  0  0  0  0  0  0  0  0  0
    0.8287    1.7559   -0.3680 H   0  0  0  0  0  0  0  0  0  0  0  0
    0.7422    0.7343    1.1042 H   0  0  0  0  0  0  0  0  0  0  0  0
    3.2791    3.8061    2.3017 H   0  0  0  0  0  0  0  0  0  0  0  0
    5.8736    2.9066    2.0197 H   0  0  0  0  0  0  0  0  0  0  0  0
    6.8317    0.4738    0.5018 H   0  0  0  0  0  0  0  0  0  0  0  0
    6.3539   -3.4457   -2.2100 H   0  0  0  0  0  0  0  0  0  0  0  0
    7.2582   -1.6029   -0.8453 H   0  0  0  0  0  0  0  0  0  0  0  0
   -2.8100   -0.7252   -1.4995 H   0  0  0  0  0  0  0  0  0  0  0  0
   -3.3396   -1.4702    0.0012 H   0  0  0  0  0  0  0  0  0  0  0  0
   -3.8274    1.5232   -0.5530 H   0  0  0  0  0  0  0  0  0  0  0  0
   -5.1902    0.1320   -2.3697 H   0  0  0  0  0  0  0  0  0  0  0  0
   -8.0937   -1.3668   -0.7017 H   0  0  0  0  0  0  0  0  0  0  0  0
   -8.5049    0.3567   -0.8183 H   0  0  0  0  0  0  0  0  0  0  0  0
   -7.7986   -0.4834   -2.2069 H   0  0  0  0  0  0  0  0  0  0  0  0
  1  2  1  0
  2  3  2  3
  3  4  1  0
  4  5  1  0
  5  6  1  0
  6  7  2  0
  7  8  1  0
  8  9  1  0
  9 10  2  0
 10 11  1  0
 11 12  2  0
 12 13  1  0
 13 14  2  0
 14 15  1  0
 15 16  1  0
 16 17  2  0
 16 18  1  0
 18 19  2  0
  2 20  1  0
 20 21  1  0
 21 22  1  0
 22 23  2  0
 23 24  1  0
 23 25  1  0
 25 26  2  0
 25 27  1  0
 14  6  1  0
 27 21  1  0
 11  7  1  0
 19 13  1  0
  1 28  1  0
  1 29  1  0
  1 30  1  0
  3 31  1  0
  4 32  1  0
  4 33  1  0
  9 34  1  0
 10 35  1  0
 12 36  1  0
 18 37  1  0
 19 38  1  0
 20 39  1  0
 20 40  1  0
 21 41  1  6
 22 42  1  0
 24 43  1  0
 24 44  1  0
 24 45  1  0
M  END
>  <Name>  (852) 
Indicolactone

>  <PubChem ID>  (852) 
6439823

>  <CDB ID>  (852) 
CDB0852

>  <Smiles>  (852) 
CC(=CCOC1=C2OC=CC2=CC2=C1OC(=O)C=C2)C[C@H]1C=C(C)C(=O)O1

>  <Chemical class>  (852) 
Geranylated linear furanocoumarins

>  <Natural source>  (852) 
Clausena lansium

>  <Molecular Formula>  (852) 
C21H18O6

>  <InChI-Key>  (852) 
XVVBVBKVMMNZHB-INIZCTEOSA-N

>  <Total Molweight>  (852) 
366.368

>  <cLogP>  (852) 
3.4948

>  <cLogS>  (852) 
-4.816

>  <H-Acceptors>  (852) 
6

>  <H-Donors>  (852) 
0

>  <Rotatable Bonds>  (852) 
5

>  <Polar Surface Area>  (852) 
74.97

$$$$
CDB0853
     RDKit          3D

 55 58  0  0  0  0  0  0  0  0999 V2000
    2.4859    4.2227    2.1626 C   0  0  0  0  0  0  0  0  0  0  0  0
    1.1827    3.7302    1.5498 C   0  0  0  0  0  0  0  0  0  0  0  0
    1.3859    2.6162    0.5052 C   0  0  2  0  0  0  0  0  0  0  0  0
    2.0999    3.1256   -0.7454 C   0  0  0  0  0  0  0  0  0  0  0  0
    0.0260    2.0495    0.1053 C   0  0  0  0  0  0  0  0  0  0  0  0
   -0.9481    2.7834   -0.0852 O   0  0  0  0  0  0  0  0  0  0  0  0
   -0.1867    0.5863   -0.0420 C   0  0  0  0  0  0  0  0  0  0  0  0
    0.8496   -0.3153   -0.2898 C   0  0  0  0  0  0  0  0  0  0  0  0
    2.1704   -0.0221   -0.4688 O   0  0  0  0  0  0  0  0  0  0  0  0
    2.8424   -1.1941   -0.6785 C   0  0  0  0  0  0  0  0  0  0  0  0
    4.3212   -1.0791   -0.8990 C   0  0  0  0  0  0  0  0  0  0  0  0
    4.6231   -0.6571   -2.3362 C   0  0  0  0  0  0  0  0  0  0  0  0
    5.0654   -2.3638   -0.5428 C   0  0  0  0  0  0  0  0  0  0  0  0
    4.7975   -0.0558   -0.0200 O   0  0  0  0  0  0  0  0  0  0  0  0
    1.9493   -2.2443   -0.6555 C   0  0  0  0  0  0  0  0  0  0  0  0
    0.6640   -1.6866   -0.4121 C   0  0  0  0  0  0  0  0  0  0  0  0
   -0.6373   -2.2043   -0.2862 C   0  0  0  0  0  0  0  0  0  0  0  0
   -0.8006   -3.6002   -0.4102 O   0  0  0  0  0  0  0  0  0  0  0  0
   -2.0367   -4.2050   -0.3116 C   0  0  0  0  0  0  0  0  0  0  0  0
   -2.1840   -5.4162   -0.4179 O   0  0  0  0  0  0  0  0  0  0  0  0
   -3.1786   -3.3211   -0.0725 C   0  0  0  0  0  0  0  0  0  0  0  0
   -3.0766   -1.9872    0.0517 C   0  0  0  0  0  0  0  0  0  0  0  0
   -4.3690   -1.3106    0.2882 C   0  0  0  0  0  0  0  0  0  0  0  0
   -5.1520   -0.8841   -0.7930 C   0  0  0  0  0  0  0  0  0  0  0  0
   -6.3872   -0.2732   -0.5688 C   0  0  0  0  0  0  0  0  0  0  0  0
   -6.8484   -0.0882    0.7341 C   0  0  0  0  0  0  0  0  0  0  0  0
   -6.0760   -0.5117    1.8151 C   0  0  0  0  0  0  0  0  0  0  0  0
   -4.8403   -1.1229    1.5945 C   0  0  0  0  0  0  0  0  0  0  0  0
   -1.7359   -1.3599   -0.0560 C   0  0  0  0  0  0  0  0  0  0  0  0
   -1.4891    0.0273    0.0521 C   0  0  0  0  0  0  0  0  0  0  0  0
   -2.5661    0.8585    0.2672 O   0  0  0  0  0  0  0  0  0  0  0  0
    3.1198    4.7120    1.4174 H   0  0  0  0  0  0  0  0  0  0  0  0
    3.0484    3.3958    2.6075 H   0  0  0  0  0  0  0  0  0  0  0  0
    2.2772    4.9527    2.9513 H   0  0  0  0  0  0  0  0  0  0  0  0
    0.5403    3.3547    2.3566 H   0  0  0  0  0  0  0  0  0  0  0  0
    0.6522    4.5810    1.1044 H   0  0  0  0  0  0  0  0  0  0  0  0
    1.9798    1.8339    0.9869 H   0  0  0  0  0  0  0  0  0  0  0  0
    2.1128    2.3702   -1.5376 H   0  0  0  0  0  0  0  0  0  0  0  0
    3.1381    3.3927   -0.5264 H   0  0  0  0  0  0  0  0  0  0  0  0
    1.5988    4.0103   -1.1537 H   0  0  0  0  0  0  0  0  0  0  0  0
    5.6992   -0.5078   -2.4810 H   0  0  0  0  0  0  0  0  0  0  0  0
    4.1432    0.2992   -2.5771 H   0  0  0  0  0  0  0  0  0  0  0  0
    4.2748   -1.4028   -3.0593 H   0  0  0  0  0  0  0  0  0  0  0  0
    6.1490   -2.2234   -0.6314 H   0  0  0  0  0  0  0  0  0  0  0  0
    4.7737   -3.1993   -1.1883 H   0  0  0  0  0  0  0  0  0  0  0  0
    4.8758   -2.6536    0.4978 H   0  0  0  0  0  0  0  0  0  0  0  0
    4.1770    0.6900   -0.1055 H   0  0  0  0  0  0  0  0  0  0  0  0
    2.1845   -3.2904   -0.8005 H   0  0  0  0  0  0  0  0  0  0  0  0
   -4.1313   -3.8377   -0.0027 H   0  0  0  0  0  0  0  0  0  0  0  0
   -4.8006   -1.0173   -1.8131 H   0  0  0  0  0  0  0  0  0  0  0  0
   -6.9873    0.0623   -1.4105 H   0  0  0  0  0  0  0  0  0  0  0  0
   -7.8084    0.3911    0.9074 H   0  0  0  0  0  0  0  0  0  0  0  0
   -6.4338   -0.3621    2.8303 H   0  0  0  0  0  0  0  0  0  0  0  0
   -4.2446   -1.4432    2.4455 H   0  0  0  0  0  0  0  0  0  0  0  0
   -2.2891    1.7950    0.1475 H   0  0  0  0  0  0  0  0  0  0  0  0
  1  2  1  0
  2  3  1  0
  3  4  1  0
  3  5  1  0
  5  6  2  0
  5  7  1  0
  7  8  2  0
  8  9  1  0
  9 10  1  0
 10 11  1  0
 11 12  1  0
 11 13  1  0
 11 14  1  0
 10 15  2  0
 15 16  1  0
 16 17  2  0
 17 18  1  0
 18 19  1  0
 19 20  2  0
 19 21  1  0
 21 22  2  0
 22 23  1  0
 23 24  2  0
 24 25  1  0
 25 26  2  0
 26 27  1  0
 27 28  2  0
 22 29  1  0
 29 30  2  0
 30 31  1  0
 30  7  1  0
 16  8  1  0
 29 17  1  0
 28 23  1  0
  1 32  1  0
  1 33  1  0
  1 34  1  0
  2 35  1  0
  2 36  1  0
  3 37  1  1
  4 38  1  0
  4 39  1  0
  4 40  1  0
 12 41  1  0
 12 42  1  0
 12 43  1  0
 13 44  1  0
 13 45  1  0
 13 46  1  0
 14 47  1  0
 15 48  1  0
 21 49  1  0
 24 50  1  0
 25 51  1  0
 26 52  1  0
 27 53  1  0
 28 54  1  0
 31 55  1  0
M  END
>  <Name>  (853) 
Ochrocarpin A

>  <PubChem ID>  (853) 
44559918

>  <CDB ID>  (853) 
CDB0853

>  <Smiles>  (853) 
CC[C@H](C)C(=O)C1=C2OC(C(C)(C)O)=CC2=C2OC(=O)C=C(C3=CC=CC=C3)C2=C1O

>  <Chemical class>  (853) 
Geranylated linear furanocoumarins

>  <Natural source>  (853) 
Mammea neurophylla

>  <Molecular Formula>  (853) 
C25H24O6

>  <InChI-Key>  (853) 
LPGFEBXRFJLODR-ZDUSSCGKSA-N

>  <Total Molweight>  (853) 
420.46

>  <cLogP>  (853) 
4.4296

>  <cLogS>  (853) 
-6.215

>  <H-Acceptors>  (853) 
6

>  <H-Donors>  (853) 
2

>  <Rotatable Bonds>  (853) 
5

>  <Polar Surface Area>  (853) 
96.97

$$$$
CDB0854
     RDKit          3D

 55 58  0  0  0  0  0  0  0  0999 V2000
   -3.2552   -2.1927   -3.2165 C   0  0  0  0  0  0  0  0  0  0  0  0
   -3.5864   -1.5803   -1.8554 C   0  0  0  0  0  0  0  0  0  0  0  0
   -3.8784   -2.6620   -0.8155 C   0  0  0  0  0  0  0  0  0  0  0  0
   -2.5302   -0.5657   -1.3795 C   0  0  0  0  0  0  0  0  0  0  0  0
   -1.1469   -1.1183   -1.0628 C   0  0  0  0  0  0  0  0  0  0  0  0
   -0.8123   -2.2725   -1.3342 O   0  0  0  0  0  0  0  0  0  0  0  0
   -0.1337   -0.2562   -0.3925 C   0  0  0  0  0  0  0  0  0  0  0  0
   -0.3047    1.1191   -0.2175 C   0  0  0  0  0  0  0  0  0  0  0  0
    0.6237    1.9385    0.4129 C   0  0  0  0  0  0  0  0  0  0  0  0
    1.8077    1.3618    0.9050 C   0  0  0  0  0  0  0  0  0  0  0  0
    2.0596   -0.0124    0.7610 C   0  0  0  0  0  0  0  0  0  0  0  0
    1.0815   -0.7977    0.1085 C   0  0  0  0  0  0  0  0  0  0  0  0
    1.3326   -2.1449   -0.0322 O   0  0  0  0  0  0  0  0  0  0  0  0
    3.3371   -0.5391    1.3033 C   0  0  0  0  0  0  0  0  0  0  0  0
    4.1850    0.3127    1.9038 C   0  0  0  0  0  0  0  0  0  0  0  0
    3.9255    1.7448    2.0585 C   0  0  0  0  0  0  0  0  0  0  0  0
    4.7332    2.4771    2.6168 O   0  0  0  0  0  0  0  0  0  0  0  0
    2.7341    2.2126    1.5445 O   0  0  0  0  0  0  0  0  0  0  0  0
    3.8221   -1.9347    1.2681 C   0  0  0  0  0  0  0  0  0  0  0  0
    3.5353   -2.8100    2.3243 C   0  0  0  0  0  0  0  0  0  0  0  0
    4.0212   -4.1187    2.3045 C   0  0  0  0  0  0  0  0  0  0  0  0
    4.7979   -4.5591    1.2334 C   0  0  0  0  0  0  0  0  0  0  0  0
    5.0893   -3.6936    0.1796 C   0  0  0  0  0  0  0  0  0  0  0  0
    4.6050   -2.3842    0.1961 C   0  0  0  0  0  0  0  0  0  0  0  0
    0.0793    3.2504    0.3871 C   0  0  0  0  0  0  0  0  0  0  0  0
   -1.1374    3.1668   -0.2565 C   0  0  0  0  0  0  0  0  0  0  0  0
   -1.3673    1.8729   -0.6254 O   0  0  0  0  0  0  0  0  0  0  0  0
   -2.1937    4.1666   -0.6104 C   0  0  0  0  0  0  0  0  0  0  0  0
   -2.3572    4.2784   -2.1263 C   0  0  0  0  0  0  0  0  0  0  0  0
   -3.5216    3.8263    0.0665 C   0  0  0  0  0  0  0  0  0  0  0  0
   -1.7465    5.4300   -0.1119 O   0  0  0  0  0  0  0  0  0  0  0  0
   -2.3914   -2.8617   -3.1723 H   0  0  0  0  0  0  0  0  0  0  0  0
   -3.0447   -1.4114   -3.9543 H   0  0  0  0  0  0  0  0  0  0  0  0
   -4.1037   -2.7784   -3.5870 H   0  0  0  0  0  0  0  0  0  0  0  0
   -4.5169   -1.0110   -1.9880 H   0  0  0  0  0  0  0  0  0  0  0  0
   -4.1246   -2.2142    0.1530 H   0  0  0  0  0  0  0  0  0  0  0  0
   -4.7346   -3.2703   -1.1272 H   0  0  0  0  0  0  0  0  0  0  0  0
   -3.0304   -3.3379   -0.6724 H   0  0  0  0  0  0  0  0  0  0  0  0
   -2.9190   -0.0895   -0.4714 H   0  0  0  0  0  0  0  0  0  0  0  0
   -2.4152    0.1981   -2.1574 H   0  0  0  0  0  0  0  0  0  0  0  0
    0.6229   -2.5582   -0.5739 H   0  0  0  0  0  0  0  0  0  0  0  0
    5.1340   -0.0123    2.3197 H   0  0  0  0  0  0  0  0  0  0  0  0
    2.9257   -2.4800    3.1616 H   0  0  0  0  0  0  0  0  0  0  0  0
    3.7898   -4.7956    3.1226 H   0  0  0  0  0  0  0  0  0  0  0  0
    5.1721   -5.5794    1.2173 H   0  0  0  0  0  0  0  0  0  0  0  0
    5.6898   -4.0392   -0.6576 H   0  0  0  0  0  0  0  0  0  0  0  0
    4.8335   -1.7205   -0.6340 H   0  0  0  0  0  0  0  0  0  0  0  0
    0.5200    4.1544    0.7867 H   0  0  0  0  0  0  0  0  0  0  0  0
   -1.4117    4.5635   -2.6030 H   0  0  0  0  0  0  0  0  0  0  0  0
   -2.6916    3.3351   -2.5719 H   0  0  0  0  0  0  0  0  0  0  0  0
   -3.0831    5.0579   -2.3849 H   0  0  0  0  0  0  0  0  0  0  0  0
   -3.9164    2.8612   -0.2694 H   0  0  0  0  0  0  0  0  0  0  0  0
   -4.2739    4.5964   -0.1391 H   0  0  0  0  0  0  0  0  0  0  0  0
   -3.4074    3.7864    1.1565 H   0  0  0  0  0  0  0  0  0  0  0  0
   -2.4223    6.0908   -0.3381 H   0  0  0  0  0  0  0  0  0  0  0  0
  1  2  1  0
  2  3  1  0
  2  4  1  0
  4  5  1  0
  5  6  2  0
  5  7  1  0
  7  8  2  0
  8  9  1  0
  9 10  2  0
 10 11  1  0
 11 12  2  0
 12 13  1  0
 11 14  1  0
 14 15  2  0
 15 16  1  0
 16 17  2  0
 16 18  1  0
 14 19  1  0
 19 20  2  0
 20 21  1  0
 21 22  2  0
 22 23  1  0
 23 24  2  0
  9 25  1  0
 25 26  2  0
 26 27  1  0
 26 28  1  0
 28 29  1  0
 28 30  1  0
 28 31  1  0
 12  7  1  0
 27  8  1  0
 18 10  1  0
 24 19  1  0
  1 32  1  0
  1 33  1  0
  1 34  1  0
  2 35  1  0
  3 36  1  0
  3 37  1  0
  3 38  1  0
  4 39  1  0
  4 40  1  0
 13 41  1  0
 15 42  1  0
 20 43  1  0
 21 44  1  0
 22 45  1  0
 23 46  1  0
 24 47  1  0
 25 48  1  0
 29 49  1  0
 29 50  1  0
 29 51  1  0
 30 52  1  0
 30 53  1  0
 30 54  1  0
 31 55  1  0
M  END
>  <Name>  (854) 
Ochrocarpin B

>  <PubChem ID>  (854) 
10387413

>  <CDB ID>  (854) 
CDB0854

>  <Smiles>  (854) 
CC(C)CC(=O)C1=C2C(=C3C(=C1O)C(=CC(=O)O3)C4=CC=CC=C4)C=C(O2)C(C)(C)O

>  <Chemical class>  (854) 
Geranylated linear furanocoumarins

>  <Natural source>  (854) 
Mammea neurophylla

>  <Molecular Formula>  (854) 
C25H24O6

>  <InChI-Key>  (854) 
LCBIHGVAJHDTOY-UHFFFAOYSA-N

>  <Total Molweight>  (854) 
420.46

>  <cLogP>  (854) 
4.4296

>  <cLogS>  (854) 
-6.215

>  <H-Acceptors>  (854) 
6

>  <H-Donors>  (854) 
2

>  <Rotatable Bonds>  (854) 
5

>  <Polar Surface Area>  (854) 
96.97

$$$$
CDB0855
     RDKit          3D

 52 55  0  0  0  0  0  0  0  0999 V2000
   -1.0693    3.8354    2.1636 C   0  0  0  0  0  0  0  0  0  0  0  0
   -1.4123    2.7672    1.1233 C   0  0  0  0  0  0  0  0  0  0  0  0
   -2.3438    3.3409    0.0605 C   0  0  0  0  0  0  0  0  0  0  0  0
   -0.1352    2.2592    0.4638 C   0  0  0  0  0  0  0  0  0  0  0  0
    0.7874    3.0272    0.1737 O   0  0  0  0  0  0  0  0  0  0  0  0
    0.0623    0.8164    0.1622 C   0  0  0  0  0  0  0  0  0  0  0  0
   -0.9880   -0.0986    0.0730 C   0  0  0  0  0  0  0  0  0  0  0  0
   -0.8120   -1.4512   -0.1876 C   0  0  0  0  0  0  0  0  0  0  0  0
    0.4929   -1.9368   -0.3821 C   0  0  0  0  0  0  0  0  0  0  0  0
    1.6023   -1.0774   -0.3282 C   0  0  0  0  0  0  0  0  0  0  0  0
    1.3635    0.2904   -0.0639 C   0  0  0  0  0  0  0  0  0  0  0  0
    2.4514    1.1346   -0.0189 O   0  0  0  0  0  0  0  0  0  0  0  0
    2.9442   -1.6694   -0.5557 C   0  0  0  0  0  0  0  0  0  0  0  0
    3.0368   -2.9875   -0.7989 C   0  0  0  0  0  0  0  0  0  0  0  0
    1.8834   -3.8867   -0.8556 C   0  0  0  0  0  0  0  0  0  0  0  0
    2.0227   -5.0822   -1.0831 O   0  0  0  0  0  0  0  0  0  0  0  0
    0.6462   -3.3150   -0.6423 O   0  0  0  0  0  0  0  0  0  0  0  0
    4.2474   -0.9725   -0.5491 C   0  0  0  0  0  0  0  0  0  0  0  0
    4.7746   -0.4476   -1.7367 C   0  0  0  0  0  0  0  0  0  0  0  0
    6.0205    0.1824   -1.7348 C   0  0  0  0  0  0  0  0  0  0  0  0
    6.7474    0.2886   -0.5496 C   0  0  0  0  0  0  0  0  0  0  0  0
    6.2304   -0.2327    0.6359 C   0  0  0  0  0  0  0  0  0  0  0  0
    4.9848   -0.8633    0.6376 C   0  0  0  0  0  0  0  0  0  0  0  0
   -2.1104   -2.0311   -0.1834 C   0  0  0  0  0  0  0  0  0  0  0  0
   -3.0058   -1.0107    0.0642 C   0  0  0  0  0  0  0  0  0  0  0  0
   -2.3193    0.1629    0.2040 O   0  0  0  0  0  0  0  0  0  0  0  0
   -4.4964   -0.9373    0.2113 C   0  0  0  0  0  0  0  0  0  0  0  0
   -5.0929    0.1303   -0.7091 C   0  0  0  0  0  0  0  0  0  0  0  0
   -5.1724   -2.2871   -0.0381 C   0  0  0  0  0  0  0  0  0  0  0  0
   -4.7385   -0.5673    1.5701 O   0  0  0  0  0  0  0  0  0  0  0  0
   -0.6026    4.7137    1.7040 H   0  0  0  0  0  0  0  0  0  0  0  0
   -0.3690    3.4404    2.9078 H   0  0  0  0  0  0  0  0  0  0  0  0
   -1.9709    4.1681    2.6887 H   0  0  0  0  0  0  0  0  0  0  0  0
   -1.9041    1.9560    1.6665 H   0  0  0  0  0  0  0  0  0  0  0  0
   -1.8955    4.2116   -0.4314 H   0  0  0  0  0  0  0  0  0  0  0  0
   -2.5616    2.6075   -0.7219 H   0  0  0  0  0  0  0  0  0  0  0  0
   -3.2936    3.6549    0.5055 H   0  0  0  0  0  0  0  0  0  0  0  0
    2.1413    2.0676    0.0218 H   0  0  0  0  0  0  0  0  0  0  0  0
    3.9898   -3.4784   -0.9724 H   0  0  0  0  0  0  0  0  0  0  0  0
    4.2144   -0.5186   -2.6656 H   0  0  0  0  0  0  0  0  0  0  0  0
    6.4214    0.5944   -2.6570 H   0  0  0  0  0  0  0  0  0  0  0  0
    7.7152    0.7833   -0.5486 H   0  0  0  0  0  0  0  0  0  0  0  0
    6.7946   -0.1439    1.5604 H   0  0  0  0  0  0  0  0  0  0  0  0
    4.5890   -1.2598    1.5692 H   0  0  0  0  0  0  0  0  0  0  0  0
   -2.3522   -3.0739   -0.3379 H   0  0  0  0  0  0  0  0  0  0  0  0
   -4.7058    1.1269   -0.4675 H   0  0  0  0  0  0  0  0  0  0  0  0
   -4.8746   -0.0761   -1.7625 H   0  0  0  0  0  0  0  0  0  0  0  0
   -6.1806    0.1890   -0.5861 H   0  0  0  0  0  0  0  0  0  0  0  0
   -4.9987   -2.6478   -1.0578 H   0  0  0  0  0  0  0  0  0  0  0  0
   -4.8094   -3.0481    0.6632 H   0  0  0  0  0  0  0  0  0  0  0  0
   -6.2546   -2.2168    0.1220 H   0  0  0  0  0  0  0  0  0  0  0  0
   -5.6946   -0.4309    1.6730 H   0  0  0  0  0  0  0  0  0  0  0  0
  1  2  1  0
  2  3  1  0
  2  4  1  0
  4  5  2  0
  4  6  1  0
  6  7  2  0
  7  8  1  0
  8  9  2  0
  9 10  1  0
 10 11  2  0
 11 12  1  0
 10 13  1  0
 13 14  2  0
 14 15  1  0
 15 16  2  0
 15 17  1  0
 13 18  1  0
 18 19  2  0
 19 20  1  0
 20 21  2  0
 21 22  1  0
 22 23  2  0
  8 24  1  0
 24 25  2  0
 25 26  1  0
 25 27  1  0
 27 28  1  0
 27 29  1  0
 27 30  1  0
 11  6  1  0
 26  7  1  0
 17  9  1  0
 23 18  1  0
  1 31  1  0
  1 32  1  0
  1 33  1  0
  2 34  1  0
  3 35  1  0
  3 36  1  0
  3 37  1  0
 12 38  1  0
 14 39  1  0
 19 40  1  0
 20 41  1  0
 21 42  1  0
 22 43  1  0
 23 44  1  0
 24 45  1  0
 28 46  1  0
 28 47  1  0
 28 48  1  0
 29 49  1  0
 29 50  1  0
 29 51  1  0
 30 52  1  0
M  END
>  <Name>  (855) 
Ochrocarpin C

>  <PubChem ID>  (855) 
11742055

>  <CDB ID>  (855) 
CDB0855

>  <Smiles>  (855) 
CC(C)C(=O)C1=C2C(=C3C(=C1O)C(=CC(=O)O3)C4=CC=CC=C4)C=C(O2)C(C)(C)O

>  <Chemical class>  (855) 
Geranylated linear furanocoumarins

>  <Natural source>  (855) 
Mammea neurophylla

>  <Molecular Formula>  (855) 
C24H22O6

>  <InChI-Key>  (855) 
VUTHGCZKFOZRRG-UHFFFAOYSA-N

>  <Total Molweight>  (855) 
406.433

>  <cLogP>  (855) 
3.9752

>  <cLogS>  (855) 
-5.945

>  <H-Acceptors>  (855) 
6

>  <H-Donors>  (855) 
2

>  <Rotatable Bonds>  (855) 
4

>  <Polar Surface Area>  (855) 
96.97

$$$$
CDB0856
     RDKit          3D

 58 61  0  0  0  0  0  0  0  0999 V2000
   -1.5669    4.4206   -0.3482 C   0  0  0  0  0  0  0  0  0  0  0  0
   -0.0431    4.3870   -0.3124 C   0  0  0  0  0  0  0  0  0  0  0  0
    0.5765    2.9966   -0.5623 C   0  0  2  0  0  0  0  0  0  0  0  0
    0.1418    2.4298   -1.9151 C   0  0  0  0  0  0  0  0  0  0  0  0
    0.2933    2.0535    0.6128 C   0  0  0  0  0  0  0  0  0  0  0  0
    0.0151    2.4440    1.7452 O   0  0  0  0  0  0  0  0  0  0  0  0
    0.4110    0.6030    0.4036 C   0  0  0  0  0  0  0  0  0  0  0  0
   -0.7258   -0.1918    0.4888 C   0  0  0  0  0  0  0  0  0  0  0  0
   -1.9999    0.2328    0.7120 O   0  0  0  0  0  0  0  0  0  0  0  0
   -2.8066   -0.8712    0.7205 C   0  0  0  0  0  0  0  0  0  0  0  0
   -4.2758   -0.6363    0.9731 C   0  0  0  0  0  0  0  0  0  0  0  0
   -4.4596   -0.0826    2.3935 C   0  0  0  0  0  0  0  0  0  0  0  0
   -4.8254    0.3433   -0.0745 C   0  0  0  0  0  0  0  0  0  0  0  0
   -4.8842   -1.9306    0.8230 O   0  0  0  0  0  0  0  0  0  0  0  0
   -6.2685   -2.0300    1.1159 C   0  0  0  0  0  0  0  0  0  0  0  0
   -2.0433   -2.0007    0.4910 C   0  0  0  0  0  0  0  0  0  0  0  0
   -0.6999   -1.5684    0.3332 C   0  0  0  0  0  0  0  0  0  0  0  0
    0.5385   -2.1858    0.0725 C   0  0  0  0  0  0  0  0  0  0  0  0
    0.5433   -3.5900   -0.0726 O   0  0  0  0  0  0  0  0  0  0  0  0
    1.6953   -4.2994   -0.3321 C   0  0  0  0  0  0  0  0  0  0  0  0
    1.7131   -5.5197   -0.4310 O   0  0  0  0  0  0  0  0  0  0  0  0
    2.9173   -3.5115   -0.5016 C   0  0  0  0  0  0  0  0  0  0  0  0
    2.9730   -2.1751   -0.3724 C   0  0  0  0  0  0  0  0  0  0  0  0
    4.3109   -1.6118   -0.6430 C   0  0  0  0  0  0  0  0  0  0  0  0
    4.5717   -0.9731   -1.8621 C   0  0  0  0  0  0  0  0  0  0  0  0
    5.8304   -0.4242   -2.1115 C   0  0  0  0  0  0  0  0  0  0  0  0
    6.8346   -0.5134   -1.1485 C   0  0  0  0  0  0  0  0  0  0  0  0
    6.5848   -1.1525    0.0651 C   0  0  0  0  0  0  0  0  0  0  0  0
    5.3274   -1.7022    0.3190 C   0  0  0  0  0  0  0  0  0  0  0  0
    1.7291   -1.4329   -0.0398 C   0  0  0  0  0  0  0  0  0  0  0  0
    1.6411   -0.0345    0.1501 C   0  0  0  0  0  0  0  0  0  0  0  0
    2.7334    0.7952    0.1029 O   0  0  0  0  0  0  0  0  0  0  0  0
   -1.9226    5.4258   -0.0996 H   0  0  0  0  0  0  0  0  0  0  0  0
   -1.9495    4.1740   -1.3430 H   0  0  0  0  0  0  0  0  0  0  0  0
   -2.0039    3.7232    0.3725 H   0  0  0  0  0  0  0  0  0  0  0  0
    0.2929    4.7711    0.6587 H   0  0  0  0  0  0  0  0  0  0  0  0
    0.3368    5.0875   -1.0667 H   0  0  0  0  0  0  0  0  0  0  0  0
    1.6649    3.1376   -0.5855 H   0  0  0  0  0  0  0  0  0  0  0  0
    0.2428    3.1814   -2.7053 H   0  0  0  0  0  0  0  0  0  0  0  0
   -0.8980    2.0866   -1.8963 H   0  0  0  0  0  0  0  0  0  0  0  0
    0.7624    1.5751   -2.2037 H   0  0  0  0  0  0  0  0  0  0  0  0
   -5.5077    0.1619    2.5972 H   0  0  0  0  0  0  0  0  0  0  0  0
   -3.8753    0.8307    2.5535 H   0  0  0  0  0  0  0  0  0  0  0  0
   -4.1519   -0.8200    3.1442 H   0  0  0  0  0  0  0  0  0  0  0  0
   -5.8800    0.5763    0.1052 H   0  0  0  0  0  0  0  0  0  0  0  0
   -4.7622   -0.0857   -1.0816 H   0  0  0  0  0  0  0  0  0  0  0  0
   -4.2784    1.2930   -0.0734 H   0  0  0  0  0  0  0  0  0  0  0  0
   -6.8631   -1.3577    0.4933 H   0  0  0  0  0  0  0  0  0  0  0  0
   -6.5837   -3.0543    0.8962 H   0  0  0  0  0  0  0  0  0  0  0  0
   -6.4627   -1.8451    2.1754 H   0  0  0  0  0  0  0  0  0  0  0  0
   -2.4196   -3.0139    0.4418 H   0  0  0  0  0  0  0  0  0  0  0  0
    3.7880   -4.1082   -0.7587 H   0  0  0  0  0  0  0  0  0  0  0  0
    3.7968   -0.8920   -2.6217 H   0  0  0  0  0  0  0  0  0  0  0  0
    6.0281    0.0737   -3.0578 H   0  0  0  0  0  0  0  0  0  0  0  0
    7.8151   -0.0861   -1.3458 H   0  0  0  0  0  0  0  0  0  0  0  0
    7.3716   -1.2242    0.8124 H   0  0  0  0  0  0  0  0  0  0  0  0
    5.1486   -2.1981    1.2712 H   0  0  0  0  0  0  0  0  0  0  0  0
    3.5282    0.3188    0.3963 H   0  0  0  0  0  0  0  0  0  0  0  0
  1  2  1  0
  2  3  1  0
  3  4  1  0
  3  5  1  0
  5  6  2  0
  5  7  1  0
  7  8  2  0
  8  9  1  0
  9 10  1  0
 10 11  1  0
 11 12  1  0
 11 13  1  0
 11 14  1  0
 14 15  1  0
 10 16  2  0
 16 17  1  0
 17 18  2  0
 18 19  1  0
 19 20  1  0
 20 21  2  0
 20 22  1  0
 22 23  2  0
 23 24  1  0
 24 25  2  0
 25 26  1  0
 26 27  2  0
 27 28  1  0
 28 29  2  0
 23 30  1  0
 30 31  2  0
 31 32  1  0
 31  7  1  0
 17  8  1  0
 30 18  1  0
 29 24  1  0
  1 33  1  0
  1 34  1  0
  1 35  1  0
  2 36  1  0
  2 37  1  0
  3 38  1  6
  4 39  1  0
  4 40  1  0
  4 41  1  0
 12 42  1  0
 12 43  1  0
 12 44  1  0
 13 45  1  0
 13 46  1  0
 13 47  1  0
 15 48  1  0
 15 49  1  0
 15 50  1  0
 16 51  1  0
 22 52  1  0
 25 53  1  0
 26 54  1  0
 27 55  1  0
 28 56  1  0
 29 57  1  0
 32 58  1  0
M  END
>  <Name>  (856) 
Ochrocarpin D

>  <PubChem ID>  (856) 
44559858

>  <CDB ID>  (856) 
CDB0856

>  <Smiles>  (856) 
CC[C@H](C)C(=O)C1=C2OC(C(C)(C)OC)=CC2=C2OC(=O)C=C(C3=CC=CC=C3)C2=C1O

>  <Chemical class>  (856) 
Geranylated linear furanocoumarins

>  <Natural source>  (856) 
Mammea neurophylla

>  <Molecular Formula>  (856) 
C26H26O6

>  <InChI-Key>  (856) 
PSBCHGQXBPONOM-AWEZNQCLSA-N

>  <Total Molweight>  (856) 
434.486

>  <cLogP>  (856) 
4.8575

>  <cLogS>  (856) 
-6.343

>  <H-Acceptors>  (856) 
6

>  <H-Donors>  (856) 
1

>  <Rotatable Bonds>  (856) 
6

>  <Polar Surface Area>  (856) 
85.97

$$$$
CDB0857
     RDKit          3D

 54 57  0  0  0  0  0  0  0  0999 V2000
    5.5993   -1.2014    0.8105 C   0  0  0  0  0  0  0  0  0  0  0  0
    4.8821    0.0893    0.4310 C   0  0  0  0  0  0  0  0  0  0  0  0
    5.8816    1.1926    0.0962 C   0  0  0  0  0  0  0  0  0  0  0  0
    3.9726   -0.1649   -0.7617 C   0  0  0  0  0  0  0  0  0  0  0  0
    4.3731   -0.3104   -1.9128 O   0  0  0  0  0  0  0  0  0  0  0  0
    2.5249   -0.2388   -0.4955 C   0  0  0  0  0  0  0  0  0  0  0  0
    1.7796    0.9488   -0.3713 C   0  0  0  0  0  0  0  0  0  0  0  0
    0.3965    0.9351   -0.1691 C   0  0  0  0  0  0  0  0  0  0  0  0
   -0.1959   -0.3222   -0.0762 C   0  0  0  0  0  0  0  0  0  0  0  0
    0.5276   -1.5083   -0.1954 C   0  0  0  0  0  0  0  0  0  0  0  0
    1.8927   -1.4809   -0.4123 C   0  0  0  0  0  0  0  0  0  0  0  0
    2.6156   -2.6290   -0.5216 O   0  0  0  0  0  0  0  0  0  0  0  0
   -0.3992   -2.6645   -0.1083 C   0  0  0  0  0  0  0  0  0  0  0  0
   -1.6445   -1.9506    0.4382 C   0  0  0  0  0  0  0  0  0  0  0  0
   -1.5365   -0.5421    0.1264 O   0  0  0  0  0  0  0  0  0  0  0  0
   -2.9935   -2.5209   -0.0619 C   0  0  0  0  0  0  0  0  0  0  0  0
   -3.1964   -2.3315   -1.5697 C   0  0  0  0  0  0  0  0  0  0  0  0
   -4.1619   -1.8507    0.6762 C   0  0  0  0  0  0  0  0  0  0  0  0
   -3.0334   -3.9299    0.2023 O   0  0  0  0  0  0  0  0  0  0  0  0
   -0.3310    2.2112   -0.0676 C   0  0  0  0  0  0  0  0  0  0  0  0
    0.3752    3.3501   -0.1524 C   0  0  0  0  0  0  0  0  0  0  0  0
    1.8311    3.3899   -0.3334 C   0  0  0  0  0  0  0  0  0  0  0  0
    2.4313    4.4570   -0.3677 O   0  0  0  0  0  0  0  0  0  0  0  0
    2.4773    2.1729   -0.4519 O   0  0  0  0  0  0  0  0  0  0  0  0
   -1.7877    2.3795    0.1020 C   0  0  0  0  0  0  0  0  0  0  0  0
   -2.3353    2.5777    1.3762 C   0  0  0  0  0  0  0  0  0  0  0  0
   -3.7131    2.7418    1.5307 C   0  0  0  0  0  0  0  0  0  0  0  0
   -4.5496    2.7103    0.4154 C   0  0  0  0  0  0  0  0  0  0  0  0
   -4.0114    2.5144   -0.8559 C   0  0  0  0  0  0  0  0  0  0  0  0
   -2.6341    2.3506   -1.0140 C   0  0  0  0  0  0  0  0  0  0  0  0
    4.8813   -1.9804    1.0872 H   0  0  0  0  0  0  0  0  0  0  0  0
    6.1975   -1.5867   -0.0227 H   0  0  0  0  0  0  0  0  0  0  0  0
    6.2663   -1.0408    1.6639 H   0  0  0  0  0  0  0  0  0  0  0  0
    4.2770    0.4213    1.2832 H   0  0  0  0  0  0  0  0  0  0  0  0
    6.5378    0.9030   -0.7320 H   0  0  0  0  0  0  0  0  0  0  0  0
    5.3641    2.1113   -0.2000 H   0  0  0  0  0  0  0  0  0  0  0  0
    6.5108    1.4227    0.9623 H   0  0  0  0  0  0  0  0  0  0  0  0
    2.0228   -3.3749   -0.7127 H   0  0  0  0  0  0  0  0  0  0  0  0
   -0.0529   -3.4407    0.5804 H   0  0  0  0  0  0  0  0  0  0  0  0
   -0.5434   -3.0961   -1.1017 H   0  0  0  0  0  0  0  0  0  0  0  0
   -1.6204   -2.0335    1.5358 H   0  0  0  0  0  0  0  0  0  0  0  0
   -3.1583   -1.2764   -1.8588 H   0  0  0  0  0  0  0  0  0  0  0  0
   -2.4503   -2.8804   -2.1522 H   0  0  0  0  0  0  0  0  0  0  0  0
   -4.1681   -2.7342   -1.8798 H   0  0  0  0  0  0  0  0  0  0  0  0
   -5.1158   -2.3107    0.3937 H   0  0  0  0  0  0  0  0  0  0  0  0
   -4.0665   -1.9822    1.7601 H   0  0  0  0  0  0  0  0  0  0  0  0
   -4.2180   -0.7784    0.4633 H   0  0  0  0  0  0  0  0  0  0  0  0
   -3.2665   -4.0604    1.1384 H   0  0  0  0  0  0  0  0  0  0  0  0
   -0.0933    4.3277   -0.0922 H   0  0  0  0  0  0  0  0  0  0  0  0
   -1.6943    2.6000    2.2541 H   0  0  0  0  0  0  0  0  0  0  0  0
   -4.1340    2.8943    2.5211 H   0  0  0  0  0  0  0  0  0  0  0  0
   -5.6222    2.8386    0.5369 H   0  0  0  0  0  0  0  0  0  0  0  0
   -4.6639    2.4884   -1.7247 H   0  0  0  0  0  0  0  0  0  0  0  0
   -2.2268    2.1935   -2.0100 H   0  0  0  0  0  0  0  0  0  0  0  0
  1  2  1  0
  2  3  1  0
  2  4  1  0
  4  5  2  0
  4  6  1  0
  6  7  2  0
  7  8  1  0
  8  9  2  0
  9 10  1  0
 10 11  2  0
 11 12  1  0
 10 13  1  0
 13 14  1  0
 14 15  1  0
 14 16  1  0
 16 17  1  0
 16 18  1  0
 16 19  1  0
  8 20  1  0
 20 21  2  0
 21 22  1  0
 22 23  2  0
 22 24  1  0
 20 25  1  0
 25 26  2  0
 26 27  1  0
 27 28  2  0
 28 29  1  0
 29 30  2  0
 11  6  1  0
 24  7  1  0
 15  9  1  0
 30 25  1  0
  1 31  1  0
  1 32  1  0
  1 33  1  0
  2 34  1  0
  3 35  1  0
  3 36  1  0
  3 37  1  0
 12 38  1  0
 13 39  1  0
 13 40  1  0
 14 41  1  0
 17 42  1  0
 17 43  1  0
 17 44  1  0
 18 45  1  0
 18 46  1  0
 18 47  1  0
 19 48  1  0
 21 49  1  0
 26 50  1  0
 27 51  1  0
 28 52  1  0
 29 53  1  0
 30 54  1  0
M  END
>  <Name>  (857) 
Ochrocarpin E

>  <PubChem ID>  (857) 
10250876

>  <CDB ID>  (857) 
CDB0857

>  <Smiles>  (857) 
CC(C)C(=O)C1=C2C(=C3C(=C1O)CC(O3)C(C)(C)O)C(=CC(=O)O2)C4=CC=CC=C4

>  <Chemical class>  (857) 
Geranylated linear furanocoumarins

>  <Natural source>  (857) 
Mammea neurophylla

>  <Molecular Formula>  (857) 
C24H24O6

>  <InChI-Key>  (857) 
FKONHDPZVQENQZ-MRXNPFEDSA-N

>  <Total Molweight>  (857) 
408.449

>  <cLogP>  (857) 
3.5574

>  <cLogS>  (857) 
-5.118

>  <H-Acceptors>  (857) 
6

>  <H-Donors>  (857) 
2

>  <Rotatable Bonds>  (857) 
4

>  <Polar Surface Area>  (857) 
93.06

$$$$
CDB0858
     RDKit          3D

 62 64  0  0  0  0  0  0  0  0999 V2000
   -3.8038    3.9984    0.7115 C   0  0  0  0  0  0  0  0  0  0  0  0
   -2.7290    3.4542   -0.2184 C   0  0  0  0  0  0  0  0  0  0  0  0
   -2.7595    1.9202   -0.3493 C   0  0  0  0  0  0  0  0  0  0  0  0
   -4.0151    1.4267   -1.0651 C   0  0  0  0  0  0  0  0  0  0  0  0
   -1.5309    1.4677   -1.1339 C   0  0  0  0  0  0  0  0  0  0  0  0
   -1.1991    2.0118   -2.1918 O   0  0  0  0  0  0  0  0  0  0  0  0
   -0.6479    0.3845   -0.6174 C   0  0  0  0  0  0  0  0  0  0  0  0
   -1.1254   -0.6562    0.1601 C   0  0  0  0  0  0  0  0  0  0  0  0
   -0.2789   -1.6356    0.6432 C   0  0  0  0  0  0  0  0  0  0  0  0
    1.0771   -1.6038    0.3580 C   0  0  0  0  0  0  0  0  0  0  0  0
    1.6339   -0.5900   -0.4366 C   0  0  0  0  0  0  0  0  0  0  0  0
    0.7347    0.3861   -0.9444 C   0  0  0  0  0  0  0  0  0  0  0  0
    1.2243    1.3495   -1.7977 O   0  0  0  0  0  0  0  0  0  0  0  0
    3.1037   -0.6392   -0.6650 C   0  0  0  0  0  0  0  0  0  0  0  0
    3.7840   -1.6852   -0.1614 C   0  0  0  0  0  0  0  0  0  0  0  0
    3.1844   -2.7677    0.6220 C   0  0  0  0  0  0  0  0  0  0  0  0
    3.8609   -3.7080    1.0205 O   0  0  0  0  0  0  0  0  0  0  0  0
    1.8378   -2.6569    0.8911 O   0  0  0  0  0  0  0  0  0  0  0  0
    3.8381    0.4794   -1.3984 C   0  0  0  0  0  0  0  0  0  0  0  0
    3.8575    0.2131   -2.9152 C   0  0  0  0  0  0  0  0  0  0  0  0
    4.4436    1.3859   -3.6923 C   0  0  0  0  0  0  0  0  0  0  0  0
    5.2282    0.5329   -0.9781 O   0  0  0  0  0  0  0  0  0  0  0  0
    5.4938    1.2840    0.1255 C   0  0  0  0  0  0  0  0  0  0  0  0
    4.6708    1.8810    0.8032 O   0  0  0  0  0  0  0  0  0  0  0  0
    6.9649    1.2646    0.4082 C   0  0  0  0  0  0  0  0  0  0  0  0
   -1.0359   -2.5826    1.4961 C   0  0  0  0  0  0  0  0  0  0  0  0
   -2.4647   -2.2152    1.0688 C   0  0  0  0  0  0  0  0  0  0  0  0
   -2.4297   -0.8641    0.5227 O   0  0  0  0  0  0  0  0  0  0  0  0
   -3.5175   -2.3117    2.2030 C   0  0  0  0  0  0  0  0  0  0  0  0
   -4.8787   -1.7873    1.7301 C   0  0  0  0  0  0  0  0  0  0  0  0
   -3.6539   -3.7548    2.6985 C   0  0  0  0  0  0  0  0  0  0  0  0
   -3.1006   -1.5079    3.3144 O   0  0  0  0  0  0  0  0  0  0  0  0
   -4.8069    3.8160    0.3152 H   0  0  0  0  0  0  0  0  0  0  0  0
   -3.6854    5.0803    0.8293 H   0  0  0  0  0  0  0  0  0  0  0  0
   -3.7340    3.5408    1.7034 H   0  0  0  0  0  0  0  0  0  0  0  0
   -2.8355    3.9250   -1.2037 H   0  0  0  0  0  0  0  0  0  0  0  0
   -1.7485    3.7636    0.1659 H   0  0  0  0  0  0  0  0  0  0  0  0
   -2.7230    1.5101    0.6644 H   0  0  0  0  0  0  0  0  0  0  0  0
   -3.9596    0.3538   -1.2765 H   0  0  0  0  0  0  0  0  0  0  0  0
   -4.1506    1.9375   -2.0250 H   0  0  0  0  0  0  0  0  0  0  0  0
   -4.9094    1.5987   -0.4586 H   0  0  0  0  0  0  0  0  0  0  0  0
    0.4671    1.8311   -2.2049 H   0  0  0  0  0  0  0  0  0  0  0  0
    4.8549   -1.7919   -0.2966 H   0  0  0  0  0  0  0  0  0  0  0  0
    3.4009    1.4599   -1.1906 H   0  0  0  0  0  0  0  0  0  0  0  0
    2.8501    0.0091   -3.2941 H   0  0  0  0  0  0  0  0  0  0  0  0
    4.4683   -0.6732   -3.1304 H   0  0  0  0  0  0  0  0  0  0  0  0
    3.8613    2.2970   -3.5217 H   0  0  0  0  0  0  0  0  0  0  0  0
    4.4298    1.1709   -4.7655 H   0  0  0  0  0  0  0  0  0  0  0  0
    5.4807    1.5799   -3.4019 H   0  0  0  0  0  0  0  0  0  0  0  0
    7.1754    1.8940    1.2776 H   0  0  0  0  0  0  0  0  0  0  0  0
    7.5126    1.6636   -0.4493 H   0  0  0  0  0  0  0  0  0  0  0  0
    7.2857    0.2436    0.6293 H   0  0  0  0  0  0  0  0  0  0  0  0
   -0.8132   -3.6316    1.2810 H   0  0  0  0  0  0  0  0  0  0  0  0
   -0.8348   -2.3706    2.5506 H   0  0  0  0  0  0  0  0  0  0  0  0
   -2.7752   -2.8665    0.2382 H   0  0  0  0  0  0  0  0  0  0  0  0
   -5.2358   -2.3333    0.8510 H   0  0  0  0  0  0  0  0  0  0  0  0
   -5.6305   -1.8822    2.5223 H   0  0  0  0  0  0  0  0  0  0  0  0
   -4.8304   -0.7205    1.4853 H   0  0  0  0  0  0  0  0  0  0  0  0
   -4.4010   -3.8236    3.4977 H   0  0  0  0  0  0  0  0  0  0  0  0
   -2.7145   -4.1175    3.1298 H   0  0  0  0  0  0  0  0  0  0  0  0
   -3.9513   -4.4308    1.8903 H   0  0  0  0  0  0  0  0  0  0  0  0
   -3.8147   -1.5070    3.9754 H   0  0  0  0  0  0  0  0  0  0  0  0
  1  2  1  0
  2  3  1  0
  3  4  1  0
  3  5  1  0
  5  6  2  0
  5  7  1  0
  7  8  1  0
  8  9  2  0
  9 10  1  0
 10 11  2  0
 11 12  1  0
 12 13  1  0
 11 14  1  0
 14 15  2  0
 15 16  1  0
 16 17  2  0
 16 18  1  0
 14 19  1  0
 19 20  1  0
 20 21  1  0
 19 22  1  0
 22 23  1  0
 23 24  2  0
 23 25  1  0
  9 26  1  0
 26 27  1  0
 27 28  1  0
 27 29  1  0
 29 30  1  0
 29 31  1  0
 29 32  1  0
 12  7  2  0
 28  8  1  0
 18 10  1  0
  1 33  1  0
  1 34  1  0
  1 35  1  0
  2 36  1  0
  2 37  1  0
  3 38  1  0
  4 39  1  0
  4 40  1  0
  4 41  1  0
 13 42  1  0
 15 43  1  0
 19 44  1  0
 20 45  1  0
 20 46  1  0
 21 47  1  0
 21 48  1  0
 21 49  1  0
 25 50  1  0
 25 51  1  0
 25 52  1  0
 26 53  1  0
 26 54  1  0
 27 55  1  0
 30 56  1  0
 30 57  1  0
 30 58  1  0
 31 59  1  0
 31 60  1  0
 31 61  1  0
 32 62  1  0
M  END
>  <Name>  (858) 
Ochrocarpin F

>  <PubChem ID>  (858) 
10388861

>  <CDB ID>  (858) 
CDB0858

>  <Smiles>  (858) 
CCC(C)C(=O)C1=C2C(=C3C(=C1O)C(=CC(=O)O3)C(CC)OC(=O)C)CC(O2)C(C)(C)O

>  <Chemical class>  (858) 
Angular dihydrofuranocoumarins

>  <Natural source>  (858) 
Mammea neurophylla

>  <Molecular Formula>  (858) 
C24H30O8

>  <InChI-Key>  (858) 
VBJCSMQHVABALD-UHFFFAOYSA-N

>  <Total Molweight>  (858) 
446.494

>  <cLogP>  (858) 
2.9635

>  <cLogS>  (858) 
-4.463

>  <H-Acceptors>  (858) 
8

>  <H-Donors>  (858) 
2

>  <Rotatable Bonds>  (858) 
8

>  <Polar Surface Area>  (858) 
119.36

$$$$
CDB0859
     RDKit          3D

 62 64  0  0  0  0  0  0  0  0999 V2000
   -3.8038    3.9984    0.7115 C   0  0  0  0  0  0  0  0  0  0  0  0
   -2.7290    3.4542   -0.2184 C   0  0  0  0  0  0  0  0  0  0  0  0
   -2.7595    1.9202   -0.3493 C   0  0  0  0  0  0  0  0  0  0  0  0
   -4.0151    1.4267   -1.0651 C   0  0  0  0  0  0  0  0  0  0  0  0
   -1.5309    1.4677   -1.1339 C   0  0  0  0  0  0  0  0  0  0  0  0
   -1.1991    2.0118   -2.1918 O   0  0  0  0  0  0  0  0  0  0  0  0
   -0.6479    0.3845   -0.6174 C   0  0  0  0  0  0  0  0  0  0  0  0
   -1.1254   -0.6562    0.1601 C   0  0  0  0  0  0  0  0  0  0  0  0
   -0.2789   -1.6356    0.6432 C   0  0  0  0  0  0  0  0  0  0  0  0
    1.0771   -1.6038    0.3580 C   0  0  0  0  0  0  0  0  0  0  0  0
    1.6339   -0.5900   -0.4366 C   0  0  0  0  0  0  0  0  0  0  0  0
    0.7347    0.3861   -0.9444 C   0  0  0  0  0  0  0  0  0  0  0  0
    1.2243    1.3495   -1.7977 O   0  0  0  0  0  0  0  0  0  0  0  0
    3.1037   -0.6392   -0.6650 C   0  0  0  0  0  0  0  0  0  0  0  0
    3.7840   -1.6852   -0.1614 C   0  0  0  0  0  0  0  0  0  0  0  0
    3.1844   -2.7677    0.6220 C   0  0  0  0  0  0  0  0  0  0  0  0
    3.8609   -3.7080    1.0205 O   0  0  0  0  0  0  0  0  0  0  0  0
    1.8378   -2.6569    0.8911 O   0  0  0  0  0  0  0  0  0  0  0  0
    3.8381    0.4794   -1.3984 C   0  0  0  0  0  0  0  0  0  0  0  0
    3.8575    0.2131   -2.9152 C   0  0  0  0  0  0  0  0  0  0  0  0
    4.4436    1.3859   -3.6923 C   0  0  0  0  0  0  0  0  0  0  0  0
    5.2282    0.5329   -0.9781 O   0  0  0  0  0  0  0  0  0  0  0  0
    5.4938    1.2840    0.1255 C   0  0  0  0  0  0  0  0  0  0  0  0
    4.6708    1.8810    0.8032 O   0  0  0  0  0  0  0  0  0  0  0  0
    6.9649    1.2646    0.4082 C   0  0  0  0  0  0  0  0  0  0  0  0
   -1.0359   -2.5826    1.4961 C   0  0  0  0  0  0  0  0  0  0  0  0
   -2.4647   -2.2152    1.0688 C   0  0  0  0  0  0  0  0  0  0  0  0
   -2.4297   -0.8641    0.5227 O   0  0  0  0  0  0  0  0  0  0  0  0
   -3.5175   -2.3117    2.2030 C   0  0  0  0  0  0  0  0  0  0  0  0
   -4.8787   -1.7873    1.7301 C   0  0  0  0  0  0  0  0  0  0  0  0
   -3.6539   -3.7548    2.6985 C   0  0  0  0  0  0  0  0  0  0  0  0
   -3.1006   -1.5079    3.3144 O   0  0  0  0  0  0  0  0  0  0  0  0
   -4.8069    3.8160    0.3152 H   0  0  0  0  0  0  0  0  0  0  0  0
   -3.6854    5.0803    0.8293 H   0  0  0  0  0  0  0  0  0  0  0  0
   -3.7340    3.5408    1.7034 H   0  0  0  0  0  0  0  0  0  0  0  0
   -2.8355    3.9250   -1.2037 H   0  0  0  0  0  0  0  0  0  0  0  0
   -1.7485    3.7636    0.1659 H   0  0  0  0  0  0  0  0  0  0  0  0
   -2.7230    1.5101    0.6644 H   0  0  0  0  0  0  0  0  0  0  0  0
   -3.9596    0.3538   -1.2765 H   0  0  0  0  0  0  0  0  0  0  0  0
   -4.1506    1.9375   -2.0250 H   0  0  0  0  0  0  0  0  0  0  0  0
   -4.9094    1.5987   -0.4586 H   0  0  0  0  0  0  0  0  0  0  0  0
    0.4671    1.8311   -2.2049 H   0  0  0  0  0  0  0  0  0  0  0  0
    4.8549   -1.7919   -0.2966 H   0  0  0  0  0  0  0  0  0  0  0  0
    3.4009    1.4599   -1.1906 H   0  0  0  0  0  0  0  0  0  0  0  0
    2.8501    0.0091   -3.2941 H   0  0  0  0  0  0  0  0  0  0  0  0
    4.4683   -0.6732   -3.1304 H   0  0  0  0  0  0  0  0  0  0  0  0
    3.8613    2.2970   -3.5217 H   0  0  0  0  0  0  0  0  0  0  0  0
    4.4298    1.1709   -4.7655 H   0  0  0  0  0  0  0  0  0  0  0  0
    5.4807    1.5799   -3.4019 H   0  0  0  0  0  0  0  0  0  0  0  0
    7.1754    1.8940    1.2776 H   0  0  0  0  0  0  0  0  0  0  0  0
    7.5126    1.6636   -0.4493 H   0  0  0  0  0  0  0  0  0  0  0  0
    7.2857    0.2436    0.6293 H   0  0  0  0  0  0  0  0  0  0  0  0
   -0.8132   -3.6316    1.2810 H   0  0  0  0  0  0  0  0  0  0  0  0
   -0.8348   -2.3706    2.5506 H   0  0  0  0  0  0  0  0  0  0  0  0
   -2.7752   -2.8665    0.2382 H   0  0  0  0  0  0  0  0  0  0  0  0
   -5.2358   -2.3333    0.8510 H   0  0  0  0  0  0  0  0  0  0  0  0
   -5.6305   -1.8822    2.5223 H   0  0  0  0  0  0  0  0  0  0  0  0
   -4.8304   -0.7205    1.4853 H   0  0  0  0  0  0  0  0  0  0  0  0
   -4.4010   -3.8236    3.4977 H   0  0  0  0  0  0  0  0  0  0  0  0
   -2.7145   -4.1175    3.1298 H   0  0  0  0  0  0  0  0  0  0  0  0
   -3.9513   -4.4308    1.8903 H   0  0  0  0  0  0  0  0  0  0  0  0
   -3.8147   -1.5070    3.9754 H   0  0  0  0  0  0  0  0  0  0  0  0
  1  2  1  0
  2  3  1  0
  3  4  1  0
  3  5  1  0
  5  6  2  0
  5  7  1  0
  7  8  1  0
  8  9  2  0
  9 10  1  0
 10 11  2  0
 11 12  1  0
 12 13  1  0
 11 14  1  0
 14 15  2  0
 15 16  1  0
 16 17  2  0
 16 18  1  0
 14 19  1  0
 19 20  1  0
 20 21  1  0
 19 22  1  0
 22 23  1  0
 23 24  2  0
 23 25  1  0
  9 26  1  0
 26 27  1  0
 27 28  1  0
 27 29  1  0
 29 30  1  0
 29 31  1  0
 29 32  1  0
 12  7  2  0
 28  8  1  0
 18 10  1  0
  1 33  1  0
  1 34  1  0
  1 35  1  0
  2 36  1  0
  2 37  1  0
  3 38  1  0
  4 39  1  0
  4 40  1  0
  4 41  1  0
 13 42  1  0
 15 43  1  0
 19 44  1  0
 20 45  1  0
 20 46  1  0
 21 47  1  0
 21 48  1  0
 21 49  1  0
 25 50  1  0
 25 51  1  0
 25 52  1  0
 26 53  1  0
 26 54  1  0
 27 55  1  0
 30 56  1  0
 30 57  1  0
 30 58  1  0
 31 59  1  0
 31 60  1  0
 31 61  1  0
 32 62  1  0
M  END
>  <Name>  (859) 
Ochrocarpin G

>  <PubChem ID>  (859) 
10343524

>  <CDB ID>  (859) 
CDB0859

>  <Smiles>  (859) 
CCC(C)C(=O)C1=C2C(=C3C(=C1O)C(=CC(=O)O3)C(CC)OC(=O)C)CC(O2)C(C)(C)O

>  <Chemical class>  (859) 
Angular dihydrofuranocoumarins

>  <Natural source>  (859) 
Mammea neurophylla

>  <Molecular Formula>  (859) 
C24H30O8

>  <InChI-Key>  (859) 
VBJCSMQHVABALD-UHFFFAOYSA-N

>  <Total Molweight>  (859) 
446.494

>  <cLogP>  (859) 
2.9635

>  <cLogS>  (859) 
-4.463

>  <H-Acceptors>  (859) 
8

>  <H-Donors>  (859) 
2

>  <Rotatable Bonds>  (859) 
8

>  <Polar Surface Area>  (859) 
119.36

$$$$
CDB0860
     RDKit          3D

 44 46  0  0  0  0  0  0  0  0999 V2000
   -5.8522    0.5874    1.7860 C   0  0  0  0  0  0  0  0  0  0  0  0
   -4.7942    0.0025    0.8878 C   0  0  0  0  0  0  0  0  0  0  0  0
   -3.6064   -0.3776    1.3994 C   0  0  0  0  0  0  0  0  0  0  0  0
   -2.4349   -0.9358    0.6862 C   0  0  0  0  0  0  0  0  0  0  0  0
   -1.7019   -1.7571    1.2102 O   0  0  0  0  0  0  0  0  0  0  0  0
   -2.3003   -0.3597   -0.5274 O   0  0  0  0  0  0  0  0  0  0  0  0
   -1.1492   -0.6117   -1.3914 C   0  0  0  0  0  0  0  0  0  0  0  0
   -1.6308   -0.1117   -2.7672 C   0  0  0  0  0  0  0  0  0  0  0  0
   -0.8333   -2.1100   -1.5147 C   0  0  0  0  0  0  0  0  0  0  0  0
    0.0499    0.2518   -0.9125 C   0  0  0  0  0  0  0  0  0  0  0  0
    1.2322    0.3257   -1.9002 C   0  0  0  0  0  0  0  0  0  0  0  0
    2.3507    0.4444   -0.9367 C   0  0  0  0  0  0  0  0  0  0  0  0
    1.8997    0.0891    0.3255 C   0  0  0  0  0  0  0  0  0  0  0  0
    0.5673   -0.2198    0.3630 O   0  0  0  0  0  0  0  0  0  0  0  0
    2.7395    0.0385    1.4159 C   0  0  0  0  0  0  0  0  0  0  0  0
    4.0735    0.3780    1.1990 C   0  0  0  0  0  0  0  0  0  0  0  0
    4.5558    0.7446   -0.0681 C   0  0  0  0  0  0  0  0  0  0  0  0
    3.6795    0.7719   -1.1588 C   0  0  0  0  0  0  0  0  0  0  0  0
    5.9640    1.0779   -0.2113 C   0  0  0  0  0  0  0  0  0  0  0  0
    6.7647    1.0330    0.8576 C   0  0  0  0  0  0  0  0  0  0  0  0
    6.2813    0.6554    2.1973 C   0  0  0  0  0  0  0  0  0  0  0  0
    7.0491    0.6308    3.1525 O   0  0  0  0  0  0  0  0  0  0  0  0
    4.9361    0.3369    2.3143 O   0  0  0  0  0  0  0  0  0  0  0  0
   -5.2064   -0.1303   -0.5523 C   0  0  0  0  0  0  0  0  0  0  0  0
   -6.1358    1.5851    1.4348 H   0  0  0  0  0  0  0  0  0  0  0  0
   -6.7438   -0.0481    1.7883 H   0  0  0  0  0  0  0  0  0  0  0  0
   -5.5110    0.6856    2.8220 H   0  0  0  0  0  0  0  0  0  0  0  0
   -3.4285   -0.3136    2.4697 H   0  0  0  0  0  0  0  0  0  0  0  0
   -2.5493   -0.6305   -3.0668 H   0  0  0  0  0  0  0  0  0  0  0  0
   -0.8841   -0.2645   -3.5526 H   0  0  0  0  0  0  0  0  0  0  0  0
   -1.8797    0.9554   -2.7281 H   0  0  0  0  0  0  0  0  0  0  0  0
   -1.7529   -2.6916   -1.6453 H   0  0  0  0  0  0  0  0  0  0  0  0
   -0.3296   -2.5018   -0.6263 H   0  0  0  0  0  0  0  0  0  0  0  0
   -0.1773   -2.3164   -2.3668 H   0  0  0  0  0  0  0  0  0  0  0  0
   -0.3177    1.2706   -0.7146 H   0  0  0  0  0  0  0  0  0  0  0  0
    1.3543   -0.5881   -2.4886 H   0  0  0  0  0  0  0  0  0  0  0  0
    1.1458    1.1885   -2.5665 H   0  0  0  0  0  0  0  0  0  0  0  0
    2.3753   -0.2507    2.3943 H   0  0  0  0  0  0  0  0  0  0  0  0
    4.0240    1.0327   -2.1545 H   0  0  0  0  0  0  0  0  0  0  0  0
    6.3459    1.3587   -1.1865 H   0  0  0  0  0  0  0  0  0  0  0  0
    7.8187    1.2741    0.7912 H   0  0  0  0  0  0  0  0  0  0  0  0
   -6.2435   -0.4777   -0.6192 H   0  0  0  0  0  0  0  0  0  0  0  0
   -5.1371    0.8383   -1.0571 H   0  0  0  0  0  0  0  0  0  0  0  0
   -4.6074   -0.8601   -1.1029 H   0  0  0  0  0  0  0  0  0  0  0  0
  1  2  1  0
  2  3  2  3
  3  4  1  0
  4  5  2  0
  4  6  1  0
  6  7  1  0
  7  8  1  0
  7  9  1  0
  7 10  1  0
 10 11  1  0
 11 12  1  0
 12 13  2  0
 13 14  1  0
 13 15  1  0
 15 16  2  0
 16 17  1  0
 17 18  2  0
 17 19  1  0
 19 20  2  0
 20 21  1  0
 21 22  2  0
 21 23  1  0
  2 24  1  0
 14 10  1  0
 18 12  1  0
 23 16  1  0
  1 25  1  0
  1 26  1  0
  1 27  1  0
  3 28  1  0
  8 29  1  0
  8 30  1  0
  8 31  1  0
  9 32  1  0
  9 33  1  0
  9 34  1  0
 10 35  1  0
 11 36  1  0
 11 37  1  0
 15 38  1  0
 18 39  1  0
 19 40  1  0
 20 41  1  0
 24 42  1  0
 24 43  1  0
 24 44  1  0
M  END
>  <Name>  (860) 
Prantschimgin (Pranchimgin)

>  <PubChem ID>  (860) 
908164

>  <CDB ID>  (860) 
CDB0860

>  <Smiles>  (860) 
CC(=CC(=O)OC(C)(C)C1CC2=C(O1)C=C3C(=C2)C=CC(=O)O3)C

>  <Chemical class>  (860) 
Linear dihydrofuranocoumarins

>  <Natural source>  (860) 
Ferulago angulata

>  <Molecular Formula>  (860) 
C19H20O5

>  <InChI-Key>  (860) 
PQCLZBCFLJVBGA-MRXNPFEDSA-N

>  <Total Molweight>  (860) 
328.363

>  <cLogP>  (860) 
3.6087

>  <cLogS>  (860) 
-3.941

>  <H-Acceptors>  (860) 
5

>  <H-Donors>  (860) 
0

>  <Rotatable Bonds>  (860) 
4

>  <Polar Surface Area>  (860) 
61.83

$$$$
CDB0861
     RDKit          3D

 44 46  0  0  0  0  0  0  0  0999 V2000
   -5.2419   -0.4628    2.6690 C   0  0  0  0  0  0  0  0  0  0  0  0
   -4.1500   -0.6743    1.6687 C   0  0  0  0  0  0  0  0  0  0  0  0
   -3.4609   -1.8077    1.4208 C   0  0  0  0  0  0  0  0  0  0  0  0
   -3.6677   -3.1258    2.1107 C   0  0  0  0  0  0  0  0  0  0  0  0
   -2.3723   -1.8456    0.3893 C   0  0  0  0  0  0  0  0  0  0  0  0
   -1.6449   -2.8148    0.2300 O   0  0  0  0  0  0  0  0  0  0  0  0
   -2.3267   -0.6998   -0.3303 O   0  0  0  0  0  0  0  0  0  0  0  0
   -1.3162   -0.5069   -1.3672 C   0  0  0  0  0  0  0  0  0  0  0  0
   -1.4877   -1.5594   -2.4740 C   0  0  0  0  0  0  0  0  0  0  0  0
   -1.6682    0.8727   -1.9557 C   0  0  0  0  0  0  0  0  0  0  0  0
    0.1122   -0.5121   -0.7529 C   0  0  0  0  0  0  0  0  0  0  0  0
    1.2612   -0.4215   -1.7766 C   0  0  0  0  0  0  0  0  0  0  0  0
    2.2252    0.3847   -0.9920 C   0  0  0  0  0  0  0  0  0  0  0  0
    1.5728    0.9505    0.0938 C   0  0  0  0  0  0  0  0  0  0  0  0
    0.2542    0.5955    0.1899 O   0  0  0  0  0  0  0  0  0  0  0  0
    2.2106    1.8043    0.9667 C   0  0  0  0  0  0  0  0  0  0  0  0
    3.5565    2.0682    0.7192 C   0  0  0  0  0  0  0  0  0  0  0  0
    4.2417    1.5057   -0.3697 C   0  0  0  0  0  0  0  0  0  0  0  0
    3.5620    0.6526   -1.2460 C   0  0  0  0  0  0  0  0  0  0  0  0
    5.6452    1.8354   -0.5593 C   0  0  0  0  0  0  0  0  0  0  0  0
    6.2514    2.6599    0.3001 C   0  0  0  0  0  0  0  0  0  0  0  0
    5.5537    3.2623    1.4495 C   0  0  0  0  0  0  0  0  0  0  0  0
    6.1463    4.0153    2.2139 O   0  0  0  0  0  0  0  0  0  0  0  0
    4.2150    2.9370    1.6143 O   0  0  0  0  0  0  0  0  0  0  0  0
   -4.9786    0.3736    3.3246 H   0  0  0  0  0  0  0  0  0  0  0  0
   -6.1717   -0.2077    2.1511 H   0  0  0  0  0  0  0  0  0  0  0  0
   -5.4343   -1.3285    3.3045 H   0  0  0  0  0  0  0  0  0  0  0  0
   -3.9111    0.2288    1.1075 H   0  0  0  0  0  0  0  0  0  0  0  0
   -3.8406   -3.9183    1.3740 H   0  0  0  0  0  0  0  0  0  0  0  0
   -4.5260   -3.1339    2.7854 H   0  0  0  0  0  0  0  0  0  0  0  0
   -2.7827   -3.3884    2.7001 H   0  0  0  0  0  0  0  0  0  0  0  0
   -1.1375   -2.5458   -2.1552 H   0  0  0  0  0  0  0  0  0  0  0  0
   -0.9288   -1.2928   -3.3771 H   0  0  0  0  0  0  0  0  0  0  0  0
   -2.5438   -1.6706   -2.7448 H   0  0  0  0  0  0  0  0  0  0  0  0
   -2.6920    0.8719   -2.3494 H   0  0  0  0  0  0  0  0  0  0  0  0
   -1.6444    1.6523   -1.1860 H   0  0  0  0  0  0  0  0  0  0  0  0
   -0.9962    1.1656   -2.7673 H   0  0  0  0  0  0  0  0  0  0  0  0
    0.2619   -1.4177   -0.1519 H   0  0  0  0  0  0  0  0  0  0  0  0
    0.9876    0.1188   -2.6867 H   0  0  0  0  0  0  0  0  0  0  0  0
    1.6422   -1.4129   -2.0379 H   0  0  0  0  0  0  0  0  0  0  0  0
    1.6893    2.2450    1.8075 H   0  0  0  0  0  0  0  0  0  0  0  0
    4.0577    0.2133   -2.1060 H   0  0  0  0  0  0  0  0  0  0  0  0
    6.1822    1.4053   -1.3975 H   0  0  0  0  0  0  0  0  0  0  0  0
    7.2953    2.9285    0.1926 H   0  0  0  0  0  0  0  0  0  0  0  0
  1  2  1  0
  2  3  2  3
  3  4  1  0
  3  5  1  0
  5  6  2  0
  5  7  1  0
  7  8  1  0
  8  9  1  0
  8 10  1  0
  8 11  1  0
 11 12  1  0
 12 13  1  0
 13 14  2  0
 14 15  1  0
 14 16  1  0
 16 17  2  0
 17 18  1  0
 18 19  2  0
 18 20  1  0
 20 21  2  0
 21 22  1  0
 22 23  2  0
 22 24  1  0
 15 11  1  0
 19 13  1  0
 24 17  1  0
  1 25  1  0
  1 26  1  0
  1 27  1  0
  2 28  1  0
  4 29  1  0
  4 30  1  0
  4 31  1  0
  9 32  1  0
  9 33  1  0
  9 34  1  0
 10 35  1  0
 10 36  1  0
 10 37  1  0
 11 38  1  0
 12 39  1  0
 12 40  1  0
 16 41  1  0
 19 42  1  0
 20 43  1  0
 21 44  1  0
M  END
>  <Name>  (861) 
Nodakenetin Tiglate

>  <PubChem ID>  (861) 
906523

>  <CDB ID>  (861) 
CDB0861

>  <Smiles>  (861) 
CC=C(C)C(=O)OC(C)(C)C1CC2=C(O1)C=C3C(=C2)C=CC(=O)O3

>  <Chemical class>  (861) 
Linear dihydrofuranocoumarins

>  <Natural source>  (861) 
Ficus tsiangii

>  <Molecular Formula>  (861) 
C19H20O5

>  <InChI-Key>  (861) 
HHNCJFKRMZDTHW-MRXNPFEDSA-N

>  <Total Molweight>  (861) 
328.363

>  <cLogP>  (861) 
3.6087

>  <cLogS>  (861) 
-3.941

>  <H-Acceptors>  (861) 
5

>  <H-Donors>  (861) 
0

>  <Rotatable Bonds>  (861) 
4

>  <Polar Surface Area>  (861) 
61.83

$$$$
CDB0862
     RDKit          3D

 35 37  0  0  0  0  0  0  0  0999 V2000
    3.7902   -0.6239    0.7212 C   0  0  0  0  0  0  0  0  0  0  0  0
    2.5854   -0.5675   -0.2256 C   0  0  0  0  0  0  0  0  0  0  0  0
    1.9464   -1.9305   -0.2988 C   0  0  0  0  0  0  0  0  0  0  0  0
    0.6351   -2.1271   -0.1424 C   0  0  0  0  0  0  0  0  0  0  0  0
   -0.2208   -0.9679    0.0941 C   0  0  0  0  0  0  0  0  0  0  0  0
    0.3742    0.2835    0.3149 C   0  0  0  0  0  0  0  0  0  0  0  0
    1.7322    0.4742    0.2879 O   0  0  0  0  0  0  0  0  0  0  0  0
   -0.4173    1.4068    0.6157 C   0  0  0  0  0  0  0  0  0  0  0  0
   -1.8069    1.2627    0.6916 C   0  0  0  0  0  0  0  0  0  0  0  0
   -2.4221    0.0274    0.4603 C   0  0  0  0  0  0  0  0  0  0  0  0
   -1.6247   -1.0800    0.1338 C   0  0  0  0  0  0  0  0  0  0  0  0
   -2.2147   -2.3022   -0.1001 O   0  0  0  0  0  0  0  0  0  0  0  0
   -2.4945   -2.4622   -1.4959 C   0  0  0  0  0  0  0  0  0  0  0  0
   -3.8883   -0.1512    0.5637 C   0  0  0  0  0  0  0  0  0  0  0  0
   -4.6887    0.7705    0.4810 O   0  0  0  0  0  0  0  0  0  0  0  0
   -2.6071    2.3779    1.0364 O   0  0  0  0  0  0  0  0  0  0  0  0
   -2.0818    3.6364    1.2848 C   0  0  0  0  0  0  0  0  0  0  0  0
   -2.7722    4.6027    1.5839 O   0  0  0  0  0  0  0  0  0  0  0  0
   -0.6217    3.7619    1.1757 C   0  0  0  0  0  0  0  0  0  0  0  0
    0.1611    2.7254    0.8660 C   0  0  0  0  0  0  0  0  0  0  0  0
    3.0460   -0.1332   -1.6215 C   0  0  0  0  0  0  0  0  0  0  0  0
    3.4766   -0.8940    1.7369 H   0  0  0  0  0  0  0  0  0  0  0  0
    4.5411   -1.3491    0.3887 H   0  0  0  0  0  0  0  0  0  0  0  0
    4.2718    0.3581    0.7992 H   0  0  0  0  0  0  0  0  0  0  0  0
    2.5910   -2.7830   -0.4978 H   0  0  0  0  0  0  0  0  0  0  0  0
    0.2004   -3.1194   -0.1928 H   0  0  0  0  0  0  0  0  0  0  0  0
   -2.9565   -3.4445   -1.6318 H   0  0  0  0  0  0  0  0  0  0  0  0
   -1.5781   -2.4320   -2.0946 H   0  0  0  0  0  0  0  0  0  0  0  0
   -3.2009   -1.7028   -1.8480 H   0  0  0  0  0  0  0  0  0  0  0  0
   -4.2473   -1.1854    0.6965 H   0  0  0  0  0  0  0  0  0  0  0  0
   -0.2167    4.7481    1.3669 H   0  0  0  0  0  0  0  0  0  0  0  0
    1.2371    2.8487    0.7974 H   0  0  0  0  0  0  0  0  0  0  0  0
    3.5184    0.8555   -1.5861 H   0  0  0  0  0  0  0  0  0  0  0  0
    3.7600   -0.8415   -2.0559 H   0  0  0  0  0  0  0  0  0  0  0  0
    2.1937   -0.0421   -2.3055 H   0  0  0  0  0  0  0  0  0  0  0  0
  1  2  1  0
  2  3  1  0
  3  4  2  0
  4  5  1  0
  5  6  1  0
  6  7  1  0
  6  8  2  0
  8  9  1  0
  9 10  2  0
 10 11  1  0
 11 12  1  0
 12 13  1  0
 10 14  1  0
 14 15  2  0
  9 16  1  0
 16 17  1  0
 17 18  2  0
 17 19  1  0
 19 20  2  0
  2 21  1  0
  7  2  1  0
 11  5  2  0
 20  8  1  0
  1 22  1  0
  1 23  1  0
  1 24  1  0
  3 25  1  0
  4 26  1  0
 13 27  1  0
 13 28  1  0
 13 29  1  0
 14 30  1  0
 19 31  1  0
 20 32  1  0
 21 33  1  0
 21 34  1  0
 21 35  1  0
M  END
>  <Name>  (862) 
8-Formylalloxanthoxyletin

>  <PubChem ID>  (862) 
122389737

>  <CDB ID>  (862) 
CDB0862

>  <Smiles>  (862) 
CC1(C=CC2=C(O1)C3=C(C(=C2OC)C=O)OC(=O)C=C3)C

>  <Chemical class>  (862) 
Angular pyranocoumarins

>  <Natural source>  (862) 
Zanthoxylum avicennae

>  <Molecular Formula>  (862) 
C16H14O5

>  <InChI-Key>  (862) 
OQAIJEKTVZZQJQ-UHFFFAOYSA-N

>  <Total Molweight>  (862) 
286.282

>  <cLogP>  (862) 
2.3874

>  <cLogS>  (862) 
-3.971

>  <H-Acceptors>  (862) 
5

>  <H-Donors>  (862) 
0

>  <Rotatable Bonds>  (862) 
2

>  <Polar Surface Area>  (862) 
61.83

$$$$
CDB0863
     RDKit          3D

 50 52  0  0  0  0  0  0  0  0999 V2000
    5.4394    2.1033    0.5144 C   0  0  0  0  0  0  0  0  0  0  0  0
    4.5976    0.8529    0.7966 C   0  0  0  0  0  0  0  0  0  0  0  0
    3.8864    1.0203    2.1145 C   0  0  0  0  0  0  0  0  0  0  0  0
    2.5796    0.7928    2.2663 C   0  0  0  0  0  0  0  0  0  0  0  0
    1.8086    0.3459    1.1092 C   0  0  0  0  0  0  0  0  0  0  0  0
    2.4212    0.3413   -0.1533 C   0  0  0  0  0  0  0  0  0  0  0  0
    3.7321    0.6986   -0.3450 O   0  0  0  0  0  0  0  0  0  0  0  0
    1.6874   -0.0093   -1.2988 C   0  0  0  0  0  0  0  0  0  0  0  0
    0.3376   -0.3471   -1.1611 C   0  0  0  0  0  0  0  0  0  0  0  0
   -0.3105   -0.3507    0.0846 C   0  0  0  0  0  0  0  0  0  0  0  0
    0.4569   -0.0426    1.2231 C   0  0  0  0  0  0  0  0  0  0  0  0
   -0.1499   -0.0471    2.4617 O   0  0  0  0  0  0  0  0  0  0  0  0
    0.0449   -1.3075    3.1074 C   0  0  0  0  0  0  0  0  0  0  0  0
   -1.7427   -0.6758    0.2074 C   0  0  0  0  0  0  0  0  0  0  0  0
   -2.6999    0.0555   -0.3895 C   0  0  0  0  0  0  0  0  0  0  0  0
   -4.2028   -0.1573   -0.3535 C   0  0  0  0  0  0  0  0  0  0  0  0
   -4.6631   -0.4251   -1.7954 C   0  0  0  0  0  0  0  0  0  0  0  0
   -4.6354   -1.3182    0.5562 C   0  0  0  0  0  0  0  0  0  0  0  0
   -4.7116    1.0939    0.1362 O   0  0  0  0  0  0  0  0  0  0  0  0
   -6.1203    1.2500    0.1818 C   0  0  0  0  0  0  0  0  0  0  0  0
   -0.4170   -0.7167   -2.3048 O   0  0  0  0  0  0  0  0  0  0  0  0
    0.1235   -0.7429   -3.5796 C   0  0  0  0  0  0  0  0  0  0  0  0
   -0.5276   -1.0619   -4.5672 O   0  0  0  0  0  0  0  0  0  0  0  0
    1.5395   -0.3688   -3.6969 C   0  0  0  0  0  0  0  0  0  0  0  0
    2.2758   -0.0268   -2.6363 C   0  0  0  0  0  0  0  0  0  0  0  0
    5.5074   -0.3796    0.8496 C   0  0  0  0  0  0  0  0  0  0  0  0
    6.1834    2.2840    1.2981 H   0  0  0  0  0  0  0  0  0  0  0  0
    5.9648    2.0121   -0.4437 H   0  0  0  0  0  0  0  0  0  0  0  0
    4.8025    2.9925    0.4324 H   0  0  0  0  0  0  0  0  0  0  0  0
    4.4737    1.3335    2.9738 H   0  0  0  0  0  0  0  0  0  0  0  0
    2.0847    0.9310    3.2211 H   0  0  0  0  0  0  0  0  0  0  0  0
    1.0963   -1.4596    3.3720 H   0  0  0  0  0  0  0  0  0  0  0  0
   -0.3093   -2.1401    2.4902 H   0  0  0  0  0  0  0  0  0  0  0  0
   -0.5384   -1.3010    4.0330 H   0  0  0  0  0  0  0  0  0  0  0  0
   -1.9798   -1.5298    0.8315 H   0  0  0  0  0  0  0  0  0  0  0  0
   -2.3970    0.9233   -0.9766 H   0  0  0  0  0  0  0  0  0  0  0  0
   -5.7346   -0.6495   -1.8395 H   0  0  0  0  0  0  0  0  0  0  0  0
   -4.1334   -1.2780   -2.2354 H   0  0  0  0  0  0  0  0  0  0  0  0
   -4.4996    0.4517   -2.4332 H   0  0  0  0  0  0  0  0  0  0  0  0
   -4.3918   -1.1095    1.6043 H   0  0  0  0  0  0  0  0  0  0  0  0
   -5.7182   -1.4784    0.5143 H   0  0  0  0  0  0  0  0  0  0  0  0
   -4.1643   -2.2633    0.2642 H   0  0  0  0  0  0  0  0  0  0  0  0
   -6.5816    0.5281    0.8596 H   0  0  0  0  0  0  0  0  0  0  0  0
   -6.5632    1.1799   -0.8146 H   0  0  0  0  0  0  0  0  0  0  0  0
   -6.3329    2.2508    0.5693 H   0  0  0  0  0  0  0  0  0  0  0  0
    1.9531   -0.3871   -4.6976 H   0  0  0  0  0  0  0  0  0  0  0  0
    3.3195    0.2463   -2.7524 H   0  0  0  0  0  0  0  0  0  0  0  0
    4.9216   -1.2935    1.0056 H   0  0  0  0  0  0  0  0  0  0  0  0
    6.0381   -0.5135   -0.1003 H   0  0  0  0  0  0  0  0  0  0  0  0
    6.2494   -0.3068    1.6523 H   0  0  0  0  0  0  0  0  0  0  0  0
  1  2  1  0
  2  3  1  0
  3  4  2  0
  4  5  1  0
  5  6  1  0
  6  7  1  0
  6  8  2  0
  8  9  1  0
  9 10  2  0
 10 11  1  0
 11 12  1  0
 12 13  1  0
 10 14  1  0
 14 15  2  3
 15 16  1  0
 16 17  1  0
 16 18  1  0
 16 19  1  0
 19 20  1  0
  9 21  1  0
 21 22  1  0
 22 23  2  0
 22 24  1  0
 24 25  2  0
  2 26  1  0
  7  2  1  0
 11  5  2  0
 25  8  1  0
  1 27  1  0
  1 28  1  0
  1 29  1  0
  3 30  1  0
  4 31  1  0
 13 32  1  0
 13 33  1  0
 13 34  1  0
 14 35  1  0
 15 36  1  0
 17 37  1  0
 17 38  1  0
 17 39  1  0
 18 40  1  0
 18 41  1  0
 18 42  1  0
 20 43  1  0
 20 44  1  0
 20 45  1  0
 24 46  1  0
 25 47  1  0
 26 48  1  0
 26 49  1  0
 26 50  1  0
M  END
>  <Name>  (863) 
Avicennol Methyl Ether

>  <PubChem ID>  (863) 
15118771

>  <CDB ID>  (863) 
CDB0863

>  <Smiles>  (863) 
CC1(C=CC2=C(O1)C3=C(C(=C2OC)C=CC(C)(C)OC)OC(=O)C=C3)C

>  <Chemical class>  (863) 
Angular pyranocoumarins

>  <Natural source>  (863) 
Zanthoxylum avicennae

>  <Molecular Formula>  (863) 
C21H24O5

>  <InChI-Key>  (863) 
DOXLEULKLKKQAR-UHFFFAOYSA-N

>  <Total Molweight>  (863) 
356.417

>  <cLogP>  (863) 
3.7858

>  <cLogS>  (863) 
-4.663

>  <H-Acceptors>  (863) 
5

>  <H-Donors>  (863) 
0

>  <Rotatable Bonds>  (863) 
4

>  <Polar Surface Area>  (863) 
53.99

$$$$
CDB0864
     RDKit          3D

 42 44  0  0  0  0  0  0  0  0999 V2000
    6.1230   -0.3962   -0.8001 C   0  0  0  0  0  0  0  0  0  0  0  0
    5.1109    0.4092   -0.0300 C   0  0  0  0  0  0  0  0  0  0  0  0
    5.4558    1.2639    0.7827 O   0  0  0  0  0  0  0  0  0  0  0  0
    3.6761    0.0962   -0.2711 C   0  0  0  0  0  0  0  0  0  0  0  0
    2.7175    0.8624    0.2695 C   0  0  0  0  0  0  0  0  0  0  0  0
    1.2800    0.6058    0.0716 C   0  0  0  0  0  0  0  0  0  0  0  0
    0.6831   -0.6420    0.3359 C   0  0  0  0  0  0  0  0  0  0  0  0
   -0.6881   -0.8652    0.0887 C   0  0  0  0  0  0  0  0  0  0  0  0
   -1.4872    0.1958   -0.3619 C   0  0  0  0  0  0  0  0  0  0  0  0
   -0.9226    1.4606   -0.5956 C   0  0  0  0  0  0  0  0  0  0  0  0
    0.4463    1.6430   -0.3751 C   0  0  0  0  0  0  0  0  0  0  0  0
    1.0389    2.9091   -0.6205 O   0  0  0  0  0  0  0  0  0  0  0  0
    0.3110    3.9977   -1.0746 C   0  0  0  0  0  0  0  0  0  0  0  0
    0.8202    5.0908   -1.2888 O   0  0  0  0  0  0  0  0  0  0  0  0
   -1.1257    3.7790   -1.2913 C   0  0  0  0  0  0  0  0  0  0  0  0
   -1.7081    2.5976   -1.0701 C   0  0  0  0  0  0  0  0  0  0  0  0
   -2.8266    0.0588   -0.6238 O   0  0  0  0  0  0  0  0  0  0  0  0
   -3.5134   -1.1356   -0.2019 C   0  0  0  0  0  0  0  0  0  0  0  0
   -2.6176   -2.2985    0.1393 C   0  0  0  0  0  0  0  0  0  0  0  0
   -1.2941   -2.1814    0.2702 C   0  0  0  0  0  0  0  0  0  0  0  0
   -4.4262   -1.5268   -1.3704 C   0  0  0  0  0  0  0  0  0  0  0  0
   -4.3660   -0.7629    1.0162 C   0  0  0  0  0  0  0  0  0  0  0  0
    1.4569   -1.6885    0.7938 O   0  0  0  0  0  0  0  0  0  0  0  0
    1.5329   -1.6563    2.2224 C   0  0  0  0  0  0  0  0  0  0  0  0
    5.6769   -0.8378   -1.6955 H   0  0  0  0  0  0  0  0  0  0  0  0
    6.5157   -1.1906   -0.1607 H   0  0  0  0  0  0  0  0  0  0  0  0
    6.9361    0.2612   -1.1205 H   0  0  0  0  0  0  0  0  0  0  0  0
    3.4501   -0.7632   -0.8910 H   0  0  0  0  0  0  0  0  0  0  0  0
    2.9715    1.7377    0.8652 H   0  0  0  0  0  0  0  0  0  0  0  0
   -1.6869    4.6354   -1.6443 H   0  0  0  0  0  0  0  0  0  0  0  0
   -2.7714    2.4648   -1.2412 H   0  0  0  0  0  0  0  0  0  0  0  0
   -3.0821   -3.2689    0.2942 H   0  0  0  0  0  0  0  0  0  0  0  0
   -0.6691   -3.0334    0.5134 H   0  0  0  0  0  0  0  0  0  0  0  0
   -5.0876   -0.6962   -1.6441 H   0  0  0  0  0  0  0  0  0  0  0  0
   -5.0480   -2.3971   -1.1332 H   0  0  0  0  0  0  0  0  0  0  0  0
   -3.8367   -1.7584   -2.2658 H   0  0  0  0  0  0  0  0  0  0  0  0
   -3.7351   -0.4358    1.8514 H   0  0  0  0  0  0  0  0  0  0  0  0
   -5.0297    0.0786    0.7848 H   0  0  0  0  0  0  0  0  0  0  0  0
   -4.9803   -1.6028    1.3588 H   0  0  0  0  0  0  0  0  0  0  0  0
    0.5396   -1.7407    2.6764 H   0  0  0  0  0  0  0  0  0  0  0  0
    2.0346   -0.7507    2.5784 H   0  0  0  0  0  0  0  0  0  0  0  0
    2.1253   -2.5185    2.5428 H   0  0  0  0  0  0  0  0  0  0  0  0
  1  2  1  0
  2  3  2  0
  2  4  1  0
  4  5  2  3
  5  6  1  0
  6  7  2  0
  7  8  1  0
  8  9  2  0
  9 10  1  0
 10 11  2  0
 11 12  1  0
 12 13  1  0
 13 14  2  0
 13 15  1  0
 15 16  2  0
  9 17  1  0
 17 18  1  0
 18 19  1  0
 19 20  2  0
 18 21  1  0
 18 22  1  0
  7 23  1  0
 23 24  1  0
 11  6  1  0
 20  8  1  0
 16 10  1  0
  1 25  1  0
  1 26  1  0
  1 27  1  0
  4 28  1  0
  5 29  1  0
 15 30  1  0
 16 31  1  0
 19 32  1  0
 20 33  1  0
 21 34  1  0
 21 35  1  0
 21 36  1  0
 22 37  1  0
 22 38  1  0
 22 39  1  0
 24 40  1  0
 24 41  1  0
 24 42  1  0
M  END
>  <Name>  (864) 
Avicennone

>  <PubChem ID>  (864) 
122389736

>  <CDB ID>  (864) 
CDB0864

>  <Smiles>  (864) 
CC(=O)C=CC1=C(C2=C(C3=C1OC(=O)C=C3)OC(C=C2)(C)C)OC

>  <Chemical class>  (864) 
Angular pyranocoumarins

>  <Natural source>  (864) 
Zanthoxylum avicennae

>  <Molecular Formula>  (864) 
C19H18O5

>  <InChI-Key>  (864) 
WRWUMWDYIQTDPH-UHFFFAOYSA-N

>  <Total Molweight>  (864) 
326.347

>  <cLogP>  (864) 
2.9461

>  <cLogS>  (864) 
-4.477

>  <H-Acceptors>  (864) 
5

>  <H-Donors>  (864) 
0

>  <Rotatable Bonds>  (864) 
3

>  <Polar Surface Area>  (864) 
61.83

$$$$
CDB0865
     RDKit          3D

 33 35  0  0  0  0  0  0  0  0999 V2000
    3.4911    1.5497    0.6966 C   0  0  0  0  0  0  0  0  0  0  0  0
    2.7594    0.6540   -0.3098 C   0  0  0  0  0  0  0  0  0  0  0  0
    2.7455   -0.7659    0.2040 C   0  0  0  0  0  0  0  0  0  0  0  0
    1.6237   -1.4463    0.4542 C   0  0  0  0  0  0  0  0  0  0  0  0
    0.3490   -0.7828    0.2185 C   0  0  0  0  0  0  0  0  0  0  0  0
   -0.8821   -1.4112    0.4502 C   0  0  0  0  0  0  0  0  0  0  0  0
   -2.1022   -0.7636    0.2201 C   0  0  0  0  0  0  0  0  0  0  0  0
   -2.0959    0.5587   -0.2583 C   0  0  0  0  0  0  0  0  0  0  0  0
   -0.8710    1.1931   -0.4922 C   0  0  0  0  0  0  0  0  0  0  0  0
    0.3387    0.5280   -0.2557 C   0  0  0  0  0  0  0  0  0  0  0  0
    1.4653    1.2553   -0.5228 O   0  0  0  0  0  0  0  0  0  0  0  0
   -3.3217    1.1403   -0.4645 O   0  0  0  0  0  0  0  0  0  0  0  0
   -3.3420    2.4778   -0.9484 C   0  0  0  0  0  0  0  0  0  0  0  0
   -3.3366   -1.4982    0.4902 C   0  0  0  0  0  0  0  0  0  0  0  0
   -3.2943   -2.7535    0.9443 C   0  0  0  0  0  0  0  0  0  0  0  0
   -2.0271   -3.4540    1.1934 C   0  0  0  0  0  0  0  0  0  0  0  0
   -2.0148   -4.6059    1.6102 O   0  0  0  0  0  0  0  0  0  0  0  0
   -0.8660   -2.7441    0.9325 O   0  0  0  0  0  0  0  0  0  0  0  0
    3.4828    0.6966   -1.6609 C   0  0  0  0  0  0  0  0  0  0  0  0
    4.5188    1.2141    0.8743 H   0  0  0  0  0  0  0  0  0  0  0  0
    3.5239    2.5874    0.3442 H   0  0  0  0  0  0  0  0  0  0  0  0
    2.9640    1.5680    1.6582 H   0  0  0  0  0  0  0  0  0  0  0  0
    3.7045   -1.2486    0.3753 H   0  0  0  0  0  0  0  0  0  0  0  0
    1.6454   -2.4659    0.8230 H   0  0  0  0  0  0  0  0  0  0  0  0
   -0.8165    2.2122   -0.8611 H   0  0  0  0  0  0  0  0  0  0  0  0
   -2.8696    3.1623   -0.2363 H   0  0  0  0  0  0  0  0  0  0  0  0
   -2.8755    2.5471   -1.9366 H   0  0  0  0  0  0  0  0  0  0  0  0
   -4.3889    2.7784   -1.0535 H   0  0  0  0  0  0  0  0  0  0  0  0
   -4.2872   -1.0051    0.3151 H   0  0  0  0  0  0  0  0  0  0  0  0
   -4.1959   -3.3165    1.1512 H   0  0  0  0  0  0  0  0  0  0  0  0
    3.5154    1.7195   -2.0543 H   0  0  0  0  0  0  0  0  0  0  0  0
    4.5101    0.3228   -1.5891 H   0  0  0  0  0  0  0  0  0  0  0  0
    2.9497    0.0966   -2.4083 H   0  0  0  0  0  0  0  0  0  0  0  0
  1  2  1  0
  2  3  1  0
  3  4  2  0
  4  5  1  0
  5  6  1  0
  6  7  2  0
  7  8  1  0
  8  9  2  0
  9 10  1  0
 10 11  1  0
  8 12  1  0
 12 13  1  0
  7 14  1  0
 14 15  2  0
 15 16  1  0
 16 17  2  0
 16 18  1  0
  2 19  1  0
 11  2  1  0
 10  5  2  0
 18  6  1  0
  1 20  1  0
  1 21  1  0
  1 22  1  0
  3 23  1  0
  4 24  1  0
  9 25  1  0
 13 26  1  0
 13 27  1  0
 13 28  1  0
 14 29  1  0
 15 30  1  0
 19 31  1  0
 19 32  1  0
 19 33  1  0
M  END
>  <Name>  (865) 
5-Methoxyseselin

>  <PubChem ID>  (865) 
290897

>  <CDB ID>  (865) 
CDB0865

>  <Smiles>  (865) 
CC1(C=CC2=C3C(=C(C=C2O1)OC)C=CC(=O)O3)C

>  <Chemical class>  (865) 
Angular pyranocoumarins

>  <Natural source>  (865) 
Zanthoxylum avicennae

>  <Molecular Formula>  (865) 
C15H14O4

>  <InChI-Key>  (865) 
ZNMRQYJUVCXNGK-UHFFFAOYSA-N

>  <Total Molweight>  (865) 
258.272

>  <cLogP>  (865) 
2.4541

>  <cLogS>  (865) 
-3.647

>  <H-Acceptors>  (865) 
4

>  <H-Donors>  (865) 
0

>  <Rotatable Bonds>  (865) 
1

>  <Polar Surface Area>  (865) 
44.76

$$$$
CDB0866
     RDKit          3D

 33 35  0  0  0  0  0  0  0  0999 V2000
    3.5663   -0.8102   -0.9704 C   0  0  0  0  0  0  0  0  0  0  0  0
    2.8808   -0.1279    0.2190 C   0  0  0  0  0  0  0  0  0  0  0  0
    2.2119   -1.1709    1.0820 C   0  0  0  0  0  0  0  0  0  0  0  0
    0.8870   -1.2646    1.2235 C   0  0  0  0  0  0  0  0  0  0  0  0
    0.0421   -0.3194    0.5017 C   0  0  0  0  0  0  0  0  0  0  0  0
    0.6530    0.7142   -0.2190 C   0  0  0  0  0  0  0  0  0  0  0  0
    2.0054    0.8810   -0.3239 O   0  0  0  0  0  0  0  0  0  0  0  0
   -0.1187    1.6735   -0.8738 C   0  0  0  0  0  0  0  0  0  0  0  0
   -1.5065    1.6011   -0.7984 C   0  0  0  0  0  0  0  0  0  0  0  0
   -2.1530    0.5857   -0.0967 C   0  0  0  0  0  0  0  0  0  0  0  0
   -1.3663   -0.3968    0.5274 C   0  0  0  0  0  0  0  0  0  0  0  0
   -1.9853   -1.4111    1.2252 O   0  0  0  0  0  0  0  0  0  0  0  0
   -2.1840   -2.5428    0.3727 C   0  0  0  0  0  0  0  0  0  0  0  0
   -3.6103    0.6111   -0.0380 C   0  0  0  0  0  0  0  0  0  0  0  0
   -4.2894    1.5728   -0.6701 C   0  0  0  0  0  0  0  0  0  0  0  0
   -3.6210    2.6334   -1.4416 C   0  0  0  0  0  0  0  0  0  0  0  0
   -4.2742    3.4901   -2.0254 O   0  0  0  0  0  0  0  0  0  0  0  0
   -2.2342    2.6073   -1.4667 O   0  0  0  0  0  0  0  0  0  0  0  0
    3.9240    0.6242    1.0543 C   0  0  0  0  0  0  0  0  0  0  0  0
    4.3084   -1.5487   -0.6478 H   0  0  0  0  0  0  0  0  0  0  0  0
    2.8314   -1.3171   -1.6074 H   0  0  0  0  0  0  0  0  0  0  0  0
    4.0682   -0.0724   -1.6074 H   0  0  0  0  0  0  0  0  0  0  0  0
    2.8512   -1.8764    1.6065 H   0  0  0  0  0  0  0  0  0  0  0  0
    0.4331   -2.0164    1.8589 H   0  0  0  0  0  0  0  0  0  0  0  0
    0.3604    2.4768   -1.4259 H   0  0  0  0  0  0  0  0  0  0  0  0
   -2.8323   -2.2948   -0.4746 H   0  0  0  0  0  0  0  0  0  0  0  0
   -2.6802   -3.3197    0.9618 H   0  0  0  0  0  0  0  0  0  0  0  0
   -1.2320   -2.9472    0.0131 H   0  0  0  0  0  0  0  0  0  0  0  0
   -4.1270   -0.1506    0.5358 H   0  0  0  0  0  0  0  0  0  0  0  0
   -5.3710    1.6216   -0.6410 H   0  0  0  0  0  0  0  0  0  0  0  0
    4.4290    1.3887    0.4522 H   0  0  0  0  0  0  0  0  0  0  0  0
    3.4479    1.1541    1.8882 H   0  0  0  0  0  0  0  0  0  0  0  0
    4.6854   -0.0485    1.4642 H   0  0  0  0  0  0  0  0  0  0  0  0
  1  2  1  0
  2  3  1  0
  3  4  2  0
  4  5  1  0
  5  6  2  0
  6  7  1  0
  6  8  1  0
  8  9  2  0
  9 10  1  0
 10 11  2  0
 11 12  1  0
 12 13  1  0
 10 14  1  0
 14 15  2  0
 15 16  1  0
 16 17  2  0
 16 18  1  0
  2 19  1  0
  7  2  1  0
 11  5  1  0
 18  9  1  0
  1 20  1  0
  1 21  1  0
  1 22  1  0
  3 23  1  0
  4 24  1  0
  8 25  1  0
 13 26  1  0
 13 27  1  0
 13 28  1  0
 14 29  1  0
 15 30  1  0
 19 31  1  0
 19 32  1  0
 19 33  1  0
M  END
>  <Name>  (866) 
Xanthoxyletin

>  <PubChem ID>  (866) 
66548

>  <CDB ID>  (866) 
CDB0866

>  <Smiles>  (866) 
CC1(C=CC2=C(O1)C=C3C(=C2OC)C=CC(=O)O3)C

>  <Chemical class>  (866) 
Linear pyranocoumarins

>  <Natural source>  (866) 
Zanthoxylum ailanthoides

>  <Molecular Formula>  (866) 
C15H14O4

>  <InChI-Key>  (866) 
JSJIIHRNDMLJGK-UHFFFAOYSA-N

>  <Total Molweight>  (866) 
258.272

>  <cLogP>  (866) 
2.4541

>  <cLogS>  (866) 
-3.647

>  <H-Acceptors>  (866) 
4

>  <H-Donors>  (866) 
0

>  <Rotatable Bonds>  (866) 
1

>  <Polar Surface Area>  (866) 
44.76

$$$$
CDB0867
     RDKit          3D

 54 57  0  0  0  0  0  0  0  0999 V2000
    1.0934   -3.6192    0.7598 C   0  0  0  0  0  0  0  0  0  0  0  0
    1.7075   -2.2098    0.8611 C   0  0  0  0  0  0  0  0  0  0  0  0
    0.5767   -1.1472    0.8740 C   0  0  0  0  0  0  0  0  0  0  0  0
    1.1598    0.2726    0.7684 C   0  0  0  0  0  0  0  0  0  0  0  0
    2.3341    0.3381   -0.1691 C   0  0  0  0  0  0  0  0  0  0  0  0
    2.9405   -0.8246   -0.6457 C   0  0  0  0  0  0  0  0  0  0  0  0
    2.5679   -2.0896   -0.2885 O   0  0  0  0  0  0  0  0  0  0  0  0
    3.9942   -0.7520   -1.5630 C   0  0  0  0  0  0  0  0  0  0  0  0
    4.4741    0.4840   -2.0018 C   0  0  0  0  0  0  0  0  0  0  0  0
    3.8988    1.6583   -1.5214 C   0  0  0  0  0  0  0  0  0  0  0  0
    2.8420    1.5693   -0.6133 C   0  0  0  0  0  0  0  0  0  0  0  0
    2.2501    2.7488   -0.1022 O   0  0  0  0  0  0  0  0  0  0  0  0
    2.6790    4.0110   -0.4895 C   0  0  0  0  0  0  0  0  0  0  0  0
    2.1771    5.0358   -0.0432 O   0  0  0  0  0  0  0  0  0  0  0  0
    3.7838    4.0685   -1.4598 C   0  0  0  0  0  0  0  0  0  0  0  0
    4.3646    2.9683   -1.9472 C   0  0  0  0  0  0  0  0  0  0  0  0
    1.5563    0.7323    2.0653 O   0  0  0  0  0  0  0  0  0  0  0  0
   -0.3096   -1.3801   -0.2405 O   0  0  0  0  0  0  0  0  0  0  0  0
   -1.6883   -1.1688    0.0719 C   0  0  0  0  0  0  0  0  0  0  0  0
   -2.5315   -1.3995   -1.2014 C   0  0  0  0  0  0  0  0  0  0  0  0
   -4.0053   -1.1988   -0.8599 C   0  0  0  0  0  0  0  0  0  0  0  0
   -4.2349    0.1740   -0.2176 C   0  0  0  0  0  0  0  0  0  0  0  0
   -3.2718    0.3736    0.9679 C   0  0  0  0  0  0  0  0  0  0  0  0
   -1.9100    0.1401    0.6007 O   0  0  0  0  0  0  0  0  0  0  0  0
   -3.3667    1.8028    1.5204 C   0  0  0  0  0  0  0  0  0  0  0  0
   -4.7067    2.1187    1.8932 O   0  0  0  0  0  0  0  0  0  0  0  0
   -5.6111    0.2320    0.1862 O   0  0  0  0  0  0  0  0  0  0  0  0
   -4.7950   -1.3028   -2.0567 O   0  0  0  0  0  0  0  0  0  0  0  0
   -2.1821   -0.4734   -2.2492 O   0  0  0  0  0  0  0  0  0  0  0  0
    2.5783   -2.1714    2.1304 C   0  0  0  0  0  0  0  0  0  0  0  0
    1.8751   -4.3880    0.7773 H   0  0  0  0  0  0  0  0  0  0  0  0
    0.5619   -3.7572   -0.1885 H   0  0  0  0  0  0  0  0  0  0  0  0
    0.3983   -3.8152    1.5829 H   0  0  0  0  0  0  0  0  0  0  0  0
    0.0170   -1.2550    1.8137 H   0  0  0  0  0  0  0  0  0  0  0  0
    0.3888    0.9582    0.4011 H   0  0  0  0  0  0  0  0  0  0  0  0
    4.4439   -1.6698   -1.9353 H   0  0  0  0  0  0  0  0  0  0  0  0
    5.2941    0.5112   -2.7147 H   0  0  0  0  0  0  0  0  0  0  0  0
    4.1019    5.0609   -1.7549 H   0  0  0  0  0  0  0  0  0  0  0  0
    5.1783    3.0334   -2.6613 H   0  0  0  0  0  0  0  0  0  0  0  0
    1.8978    1.6358    1.9382 H   0  0  0  0  0  0  0  0  0  0  0  0
   -1.9734   -1.9102    0.8305 H   0  0  0  0  0  0  0  0  0  0  0  0
   -2.3509   -2.4006   -1.6082 H   0  0  0  0  0  0  0  0  0  0  0  0
   -4.3496   -1.9922   -0.1852 H   0  0  0  0  0  0  0  0  0  0  0  0
   -4.0892    0.9591   -0.9697 H   0  0  0  0  0  0  0  0  0  0  0  0
   -3.5524   -0.3151    1.7764 H   0  0  0  0  0  0  0  0  0  0  0  0
   -3.0280    2.5295    0.7735 H   0  0  0  0  0  0  0  0  0  0  0  0
   -2.7194    1.9093    2.3980 H   0  0  0  0  0  0  0  0  0  0  0  0
   -4.6748    3.0052    2.3002 H   0  0  0  0  0  0  0  0  0  0  0  0
   -5.6821    1.0008    0.7962 H   0  0  0  0  0  0  0  0  0  0  0  0
   -5.6831   -0.9810   -1.7972 H   0  0  0  0  0  0  0  0  0  0  0  0
   -2.8672   -0.6028   -2.9349 H   0  0  0  0  0  0  0  0  0  0  0  0
    3.3118   -2.9866    2.1198 H   0  0  0  0  0  0  0  0  0  0  0  0
    1.9700   -2.2693    3.0355 H   0  0  0  0  0  0  0  0  0  0  0  0
    3.1661   -1.2517    2.2041 H   0  0  0  0  0  0  0  0  0  0  0  0
  1  2  1  0
  2  3  1  0
  3  4  1  0
  4  5  1  0
  5  6  2  0
  6  7  1  0
  6  8  1  0
  8  9  2  0
  9 10  1  0
 10 11  2  0
 11 12  1  0
 12 13  1  0
 13 14  2  0
 13 15  1  0
 15 16  2  0
  4 17  1  0
  3 18  1  0
 18 19  1  0
 19 20  1  0
 20 21  1  0
 21 22  1  0
 22 23  1  0
 23 24  1  0
 23 25  1  0
 25 26  1  0
 22 27  1  0
 21 28  1  0
 20 29  1  0
  2 30  1  0
  7  2  1  0
 11  5  1  0
 16 10  1  0
 24 19  1  0
  1 31  1  0
  1 32  1  0
  1 33  1  0
  3 34  1  0
  4 35  1  0
  8 36  1  0
  9 37  1  0
 15 38  1  0
 16 39  1  0
 17 40  1  0
 19 41  1  0
 20 42  1  0
 21 43  1  0
 22 44  1  0
 23 45  1  0
 25 46  1  0
 25 47  1  0
 26 48  1  0
 27 49  1  0
 28 50  1  0
 29 51  1  0
 30 52  1  0
 30 53  1  0
 30 54  1  0
M  END
>  <Name>  (867) 
Praeroside II

>  <PubChem ID>  (867) 
24066895

>  <CDB ID>  (867) 
CDB0867

>  <Smiles>  (867) 
CC1(C(C(C2=C(O1)C=CC3=C2OC(=O)C=C3)O)OC4C(C(C(C(O4)CO)O)O)O)C

>  <Chemical class>  (867) 
Linear pyranocoumarins

>  <Natural source>  (867) 
Peucedanum praeruptorum

>  <Molecular Formula>  (867) 
C20H24O10

>  <InChI-Key>  (867) 
QAUDHOGPLBDVAX-UHFFFAOYSA-N

>  <Total Molweight>  (867) 
424.401

>  <cLogP>  (867) 
-0.7273

>  <cLogS>  (867) 
-2.247

>  <H-Acceptors>  (867) 
10

>  <H-Donors>  (867) 
5

>  <Rotatable Bonds>  (867) 
3

>  <Polar Surface Area>  (867) 
155.14

$$$$
CDB0868
     RDKit          3D

 56 58  0  0  0  0  0  0  0  0999 V2000
   -2.0959   -1.4931    2.6751 C   0  0  0  0  0  0  0  0  0  0  0  0
   -0.6251   -1.3858    2.2686 C   0  0  0  0  0  0  0  0  0  0  0  0
    0.0850   -2.7236    2.5065 C   0  0  0  0  0  0  0  0  0  0  0  0
   -0.4384   -0.8430    0.8155 C   0  0  0  0  0  0  0  0  0  0  0  0
   -1.0694   -1.6897   -0.3123 C   0  0  0  0  0  0  0  0  0  0  0  0
   -2.3935   -1.1610   -0.8266 C   0  0  0  0  0  0  0  0  0  0  0  0
   -3.5783   -1.8957   -0.7036 C   0  0  0  0  0  0  0  0  0  0  0  0
   -4.7931   -1.4077   -1.1925 C   0  0  0  0  0  0  0  0  0  0  0  0
   -4.8427   -0.1668   -1.8315 C   0  0  0  0  0  0  0  0  0  0  0  0
   -3.6775    0.5829   -1.9878 C   0  0  0  0  0  0  0  0  0  0  0  0
   -2.4736    0.0766   -1.4906 C   0  0  0  0  0  0  0  0  0  0  0  0
   -1.2815    0.8218   -1.6592 O   0  0  0  0  0  0  0  0  0  0  0  0
   -1.2641    2.0660   -2.2738 C   0  0  0  0  0  0  0  0  0  0  0  0
   -0.2421    2.7338   -2.3894 O   0  0  0  0  0  0  0  0  0  0  0  0
   -2.5502    2.5631   -2.7882 C   0  0  0  0  0  0  0  0  0  0  0  0
   -3.6873    1.8736   -2.6585 C   0  0  0  0  0  0  0  0  0  0  0  0
   -3.5415   -3.1187   -0.0958 O   0  0  0  0  0  0  0  0  0  0  0  0
    0.9771   -0.7854    0.5439 O   0  0  0  0  0  0  0  0  0  0  0  0
    1.5464    0.5085    0.7388 C   0  0  0  0  0  0  0  0  0  0  0  0
    2.8807    0.3463    1.4982 C   0  0  0  0  0  0  0  0  0  0  0  0
    3.8368    1.4509    1.0576 C   0  0  0  0  0  0  0  0  0  0  0  0
    4.1130    1.3413   -0.4495 C   0  0  0  0  0  0  0  0  0  0  0  0
    2.8795    0.8167   -1.2100 C   0  0  0  0  0  0  0  0  0  0  0  0
    1.6731    1.1678   -0.5192 O   0  0  0  0  0  0  0  0  0  0  0  0
    2.8124    1.3846   -2.6312 C   0  0  0  0  0  0  0  0  0  0  0  0
    2.5487    2.7873   -2.6119 O   0  0  0  0  0  0  0  0  0  0  0  0
    5.2085    0.4332   -0.6624 O   0  0  0  0  0  0  0  0  0  0  0  0
    5.0757    1.3552    1.7839 O   0  0  0  0  0  0  0  0  0  0  0  0
    2.6900    0.4309    2.9246 O   0  0  0  0  0  0  0  0  0  0  0  0
    0.0071   -0.4506    3.1779 O   0  0  0  0  0  0  0  0  0  0  0  0
   -2.1884   -1.6631    3.7543 H   0  0  0  0  0  0  0  0  0  0  0  0
   -2.6302   -0.5603    2.4630 H   0  0  0  0  0  0  0  0  0  0  0  0
   -2.6039   -2.3124    2.1630 H   0  0  0  0  0  0  0  0  0  0  0  0
    1.1580   -2.6494    2.2984 H   0  0  0  0  0  0  0  0  0  0  0  0
   -0.3329   -3.5304    1.8982 H   0  0  0  0  0  0  0  0  0  0  0  0
    0.0034   -3.0192    3.5595 H   0  0  0  0  0  0  0  0  0  0  0  0
   -0.8491    0.1737    0.7817 H   0  0  0  0  0  0  0  0  0  0  0  0
   -1.1586   -2.7355   -0.0044 H   0  0  0  0  0  0  0  0  0  0  0  0
   -0.3896   -1.7229   -1.1758 H   0  0  0  0  0  0  0  0  0  0  0  0
   -5.7101   -1.9810   -1.0873 H   0  0  0  0  0  0  0  0  0  0  0  0
   -5.7948    0.1990   -2.2087 H   0  0  0  0  0  0  0  0  0  0  0  0
   -2.5193    3.5275   -3.2809 H   0  0  0  0  0  0  0  0  0  0  0  0
   -4.6225    2.2614   -3.0476 H   0  0  0  0  0  0  0  0  0  0  0  0
   -4.4121   -3.5432   -0.1748 H   0  0  0  0  0  0  0  0  0  0  0  0
    0.8858    1.1380    1.3464 H   0  0  0  0  0  0  0  0  0  0  0  0
    3.3254   -0.6398    1.3168 H   0  0  0  0  0  0  0  0  0  0  0  0
    3.4012    2.4294    1.2946 H   0  0  0  0  0  0  0  0  0  0  0  0
    4.4440    2.3181   -0.8190 H   0  0  0  0  0  0  0  0  0  0  0  0
    2.9308   -0.2767   -1.3038 H   0  0  0  0  0  0  0  0  0  0  0  0
    2.0029    0.9082   -3.1949 H   0  0  0  0  0  0  0  0  0  0  0  0
    3.7502    1.2150   -3.1692 H   0  0  0  0  0  0  0  0  0  0  0  0
    1.6086    2.8679   -2.3305 H   0  0  0  0  0  0  0  0  0  0  0  0
    5.8165    0.6096    0.0878 H   0  0  0  0  0  0  0  0  0  0  0  0
    4.8025    1.1892    2.7104 H   0  0  0  0  0  0  0  0  0  0  0  0
    1.9035   -0.1246    3.1307 H   0  0  0  0  0  0  0  0  0  0  0  0
   -0.6010    0.3023    3.2955 H   0  0  0  0  0  0  0  0  0  0  0  0
  1  2  1  0
  2  3  1  0
  2  4  1  0
  4  5  1  0
  5  6  1  0
  6  7  2  0
  7  8  1  0
  8  9  2  0
  9 10  1  0
 10 11  2  0
 11 12  1  0
 12 13  1  0
 13 14  2  0
 13 15  1  0
 15 16  2  0
  7 17  1  0
  4 18  1  0
 18 19  1  0
 19 20  1  0
 20 21  1  0
 21 22  1  0
 22 23  1  0
 23 24  1  0
 23 25  1  0
 25 26  1  0
 22 27  1  0
 21 28  1  0
 20 29  1  0
  2 30  1  0
 11  6  1  0
 16 10  1  0
 24 19  1  0
  1 31  1  0
  1 32  1  0
  1 33  1  0
  3 34  1  0
  3 35  1  0
  3 36  1  0
  4 37  1  0
  5 38  1  0
  5 39  1  0
  8 40  1  0
  9 41  1  0
 15 42  1  0
 16 43  1  0
 17 44  1  0
 19 45  1  0
 20 46  1  0
 21 47  1  0
 22 48  1  0
 23 49  1  0
 25 50  1  0
 25 51  1  0
 26 52  1  0
 27 53  1  0
 28 54  1  0
 29 55  1  0
 30 56  1  0
M  END
>  <Name>  (868) 
Praeroside VI

>  <PubChem ID>  (868) 
102353962

>  <CDB ID>  (868) 
CDB0868

>  <Smiles>  (868) 
CC(C)(C(CC1=C(C=CC2=C1OC(=O)C=C2)O)OC3C(C(C(C(O3)CO)O)O)O)O

>  <Chemical class>  (868) 
Linear pyranocoumarins

>  <Natural source>  (868) 
Peucedanum praeruptorum

>  <Molecular Formula>  (868) 
C20H26O10

>  <InChI-Key>  (868) 
ZRWARFMXIZFTJY-UHFFFAOYSA-N

>  <Total Molweight>  (868) 
426.416

>  <cLogP>  (868) 
-0.6801

>  <cLogS>  (868) 
-2.128

>  <H-Acceptors>  (868) 
10

>  <H-Donors>  (868) 
6

>  <Rotatable Bonds>  (868) 
6

>  <Polar Surface Area>  (868) 
166.14

$$$$
CDB0869
     RDKit          3D

 50 52  0  0  0  0  0  0  0  0999 V2000
    5.6669    2.6475   -0.7640 C   0  0  0  0  0  0  0  0  0  0  0  0
    4.5080    1.7278   -0.9761 C   0  0  0  0  0  0  0  0  0  0  0  0
    3.5693    1.3529   -0.0831 C   0  0  0  0  0  0  0  0  0  0  0  0
    3.4772    1.8098    1.3416 C   0  0  0  0  0  0  0  0  0  0  0  0
    2.5181    0.4089   -0.5791 C   0  0  0  0  0  0  0  0  0  0  0  0
    2.4019    0.0384   -1.7377 O   0  0  0  0  0  0  0  0  0  0  0  0
    1.7350   -0.0048    0.4525 O   0  0  0  0  0  0  0  0  0  0  0  0
    0.6703   -0.9080    0.0937 C   0  0  0  0  0  0  0  0  0  0  0  0
   -0.5901   -0.1462   -0.3531 C   0  0  0  0  0  0  0  0  0  0  0  0
   -1.7434   -1.1076   -0.4701 C   0  0  0  0  0  0  0  0  0  0  0  0
   -1.7100   -2.3532    0.1624 C   0  0  0  0  0  0  0  0  0  0  0  0
   -2.7805   -3.2435    0.0315 C   0  0  0  0  0  0  0  0  0  0  0  0
   -3.9104   -2.8953   -0.7119 C   0  0  0  0  0  0  0  0  0  0  0  0
   -3.9754   -1.6475   -1.3288 C   0  0  0  0  0  0  0  0  0  0  0  0
   -2.8956   -0.7717   -1.1987 C   0  0  0  0  0  0  0  0  0  0  0  0
   -2.9477    0.5049   -1.8056 O   0  0  0  0  0  0  0  0  0  0  0  0
   -4.0561    0.9327   -2.5230 C   0  0  0  0  0  0  0  0  0  0  0  0
   -4.1265    2.0491   -3.0226 O   0  0  0  0  0  0  0  0  0  0  0  0
   -5.1660   -0.0245   -2.6594 C   0  0  0  0  0  0  0  0  0  0  0  0
   -5.1368   -1.2383   -2.1018 C   0  0  0  0  0  0  0  0  0  0  0  0
   -0.6686   -2.8104    0.9215 O   0  0  0  0  0  0  0  0  0  0  0  0
    0.3635   -1.8658    1.2679 C   0  0  0  0  0  0  0  0  0  0  0  0
   -0.0268   -1.1709    2.5828 C   0  0  0  0  0  0  0  0  0  0  0  0
    1.6161   -2.7181    1.5526 C   0  0  0  0  0  0  0  0  0  0  0  0
   -0.9950    0.8472    0.6106 O   0  0  0  0  0  0  0  0  0  0  0  0
   -0.5300    2.1081    0.4194 C   0  0  0  0  0  0  0  0  0  0  0  0
    0.2402    2.4637   -0.4591 O   0  0  0  0  0  0  0  0  0  0  0  0
   -1.0867    3.0180    1.4707 C   0  0  0  0  0  0  0  0  0  0  0  0
    5.5574    3.5318   -1.3994 H   0  0  0  0  0  0  0  0  0  0  0  0
    6.5936    2.1384   -1.0479 H   0  0  0  0  0  0  0  0  0  0  0  0
    5.7806    2.9832    0.2681 H   0  0  0  0  0  0  0  0  0  0  0  0
    4.4494    1.3347   -1.9928 H   0  0  0  0  0  0  0  0  0  0  0  0
    4.2119    2.5759    1.5979 H   0  0  0  0  0  0  0  0  0  0  0  0
    2.4917    2.2431    1.5437 H   0  0  0  0  0  0  0  0  0  0  0  0
    3.6335    0.9670    2.0233 H   0  0  0  0  0  0  0  0  0  0  0  0
    0.9850   -1.5451   -0.7473 H   0  0  0  0  0  0  0  0  0  0  0  0
   -0.4013    0.3188   -1.3291 H   0  0  0  0  0  0  0  0  0  0  0  0
   -2.7344   -4.2151    0.5189 H   0  0  0  0  0  0  0  0  0  0  0  0
   -4.7302   -3.6045   -0.7943 H   0  0  0  0  0  0  0  0  0  0  0  0
   -6.0140    0.3178   -3.2398 H   0  0  0  0  0  0  0  0  0  0  0  0
   -5.9676   -1.9262   -2.2145 H   0  0  0  0  0  0  0  0  0  0  0  0
   -0.1038   -1.9031    3.3958 H   0  0  0  0  0  0  0  0  0  0  0  0
   -1.0143   -0.7041    2.5253 H   0  0  0  0  0  0  0  0  0  0  0  0
    0.7059   -0.4131    2.8775 H   0  0  0  0  0  0  0  0  0  0  0  0
    1.4095   -3.4730    2.3205 H   0  0  0  0  0  0  0  0  0  0  0  0
    1.9214   -3.2717    0.6570 H   0  0  0  0  0  0  0  0  0  0  0  0
    2.4610   -2.1081    1.8884 H   0  0  0  0  0  0  0  0  0  0  0  0
   -2.1788    3.0120    1.4260 H   0  0  0  0  0  0  0  0  0  0  0  0
   -0.7393    2.6995    2.4567 H   0  0  0  0  0  0  0  0  0  0  0  0
   -0.7379    4.0385    1.2887 H   0  0  0  0  0  0  0  0  0  0  0  0
  1  2  1  0
  2  3  2  3
  3  4  1  0
  3  5  1  0
  5  6  2  0
  5  7  1  0
  7  8  1  0
  8  9  1  0
  9 10  1  0
 10 11  2  0
 11 12  1  0
 12 13  2  0
 13 14  1  0
 14 15  2  0
 15 16  1  0
 16 17  1  0
 17 18  2  0
 17 19  1  0
 19 20  2  0
 11 21  1  0
 21 22  1  0
 22 23  1  0
 22 24  1  0
  9 25  1  0
 25 26  1  0
 26 27  2  0
 26 28  1  0
 22  8  1  0
 15 10  1  0
 20 14  1  0
  1 29  1  0
  1 30  1  0
  1 31  1  0
  2 32  1  0
  4 33  1  0
  4 34  1  0
  4 35  1  0
  8 36  1  0
  9 37  1  0
 12 38  1  0
 13 39  1  0
 19 40  1  0
 20 41  1  0
 23 42  1  0
 23 43  1  0
 23 44  1  0
 24 45  1  0
 24 46  1  0
 24 47  1  0
 28 48  1  0
 28 49  1  0
 28 50  1  0
M  END
>  <Name>  (869) 
Praeruptorin A

>  <PubChem ID>  (869) 
38347607

>  <CDB ID>  (869) 
CDB0869

>  <Smiles>  (869) 
CC=C(C)C(=O)OC1C(C2=C(C=CC3=C2OC(=O)C=C3)OC1(C)C)OC(=O)C

>  <Chemical class>  (869) 
Angular dihydropyranocoumarins

>  <Natural source>  (869) 
Peucedanum praeruptorum

>  <Molecular Formula>  (869) 
C21H22O7

>  <InChI-Key>  (869) 
XGPBRZDOJDLKOT-UHFFFAOYSA-N

>  <Total Molweight>  (869) 
386.399

>  <cLogP>  (869) 
3.342

>  <cLogS>  (869) 
-3.803

>  <H-Acceptors>  (869) 
7

>  <H-Donors>  (869) 
0

>  <Rotatable Bonds>  (869) 
5

>  <Polar Surface Area>  (869) 
88.13

$$$$
CDB0870
     RDKit          3D

 57 59  0  0  0  0  0  0  0  0999 V2000
   -4.1400    3.3195    2.4807 C   0  0  0  0  0  0  0  0  0  0  0  0
   -3.5893    2.5102    1.3513 C   0  0  0  0  0  0  0  0  0  0  0  0
   -2.5075    1.7045    1.3546 C   0  0  0  0  0  0  0  0  0  0  0  0
   -1.6003    1.4509    2.5211 C   0  0  0  0  0  0  0  0  0  0  0  0
   -2.1921    1.0087    0.0670 C   0  0  0  0  0  0  0  0  0  0  0  0
   -2.8288    1.1321   -0.9699 O   0  0  0  0  0  0  0  0  0  0  0  0
   -1.1044    0.2099    0.2177 O   0  0  0  0  0  0  0  0  0  0  0  0
   -0.7222   -0.5167   -0.9633 C   0  0  0  0  0  0  0  0  0  0  0  0
    0.1773    0.3699   -1.8440 C   0  0  0  0  0  0  0  0  0  0  0  0
    0.7640   -0.4665   -3.0012 C   0  0  0  0  0  0  0  0  0  0  0  0
    1.5110   -1.6037   -2.5251 O   0  0  0  0  0  0  0  0  0  0  0  0
    1.0546   -2.2457   -1.4068 C   0  0  0  0  0  0  0  0  0  0  0  0
   -0.0017   -1.7971   -0.6055 C   0  0  0  0  0  0  0  0  0  0  0  0
   -0.3870   -2.6091    0.4749 C   0  0  0  0  0  0  0  0  0  0  0  0
    0.2850   -3.7924    0.7958 C   0  0  0  0  0  0  0  0  0  0  0  0
    1.3608   -4.1951    0.0078 C   0  0  0  0  0  0  0  0  0  0  0  0
    1.7380   -3.4250   -1.0927 C   0  0  0  0  0  0  0  0  0  0  0  0
   -0.1523   -4.5778    1.9394 C   0  0  0  0  0  0  0  0  0  0  0  0
   -1.1908   -4.1640    2.6707 C   0  0  0  0  0  0  0  0  0  0  0  0
   -1.9275   -2.9288    2.3609 C   0  0  0  0  0  0  0  0  0  0  0  0
   -2.8666   -2.5649    3.0585 O   0  0  0  0  0  0  0  0  0  0  0  0
   -1.5025   -2.2146    1.2508 O   0  0  0  0  0  0  0  0  0  0  0  0
    1.7708    0.3784   -3.8025 C   0  0  0  0  0  0  0  0  0  0  0  0
   -0.3157   -0.9692   -3.9744 C   0  0  0  0  0  0  0  0  0  0  0  0
    1.2835    0.8832   -1.0464 O   0  0  0  0  0  0  0  0  0  0  0  0
    1.1542    2.1243   -0.5259 C   0  0  0  0  0  0  0  0  0  0  0  0
    0.2202    2.8891   -0.7046 O   0  0  0  0  0  0  0  0  0  0  0  0
    2.3792    2.4959    0.2319 C   0  0  0  0  0  0  0  0  0  0  0  0
    3.0127    1.6698    1.0879 C   0  0  0  0  0  0  0  0  0  0  0  0
    2.6007    0.2934    1.5056 C   0  0  0  0  0  0  0  0  0  0  0  0
    2.8500    3.8960   -0.0284 C   0  0  0  0  0  0  0  0  0  0  0  0
   -4.1270    4.3807    2.2128 H   0  0  0  0  0  0  0  0  0  0  0  0
   -5.1791    3.0295    2.6662 H   0  0  0  0  0  0  0  0  0  0  0  0
   -3.5919    3.2035    3.4169 H   0  0  0  0  0  0  0  0  0  0  0  0
   -4.1625    2.6121    0.4283 H   0  0  0  0  0  0  0  0  0  0  0  0
   -1.8751    2.0156    3.4142 H   0  0  0  0  0  0  0  0  0  0  0  0
   -1.6159    0.3908    2.7950 H   0  0  0  0  0  0  0  0  0  0  0  0
   -0.5711    1.7325    2.2738 H   0  0  0  0  0  0  0  0  0  0  0  0
   -1.6192   -0.8240   -1.5164 H   0  0  0  0  0  0  0  0  0  0  0  0
   -0.3985    1.2090   -2.2534 H   0  0  0  0  0  0  0  0  0  0  0  0
    1.9070   -5.1087    0.2282 H   0  0  0  0  0  0  0  0  0  0  0  0
    2.5677   -3.7476   -1.7182 H   0  0  0  0  0  0  0  0  0  0  0  0
    0.3751   -5.4930    2.1855 H   0  0  0  0  0  0  0  0  0  0  0  0
   -1.5433   -4.7204    3.5305 H   0  0  0  0  0  0  0  0  0  0  0  0
    2.6326    0.6638   -3.1888 H   0  0  0  0  0  0  0  0  0  0  0  0
    1.3069    1.2875   -4.1990 H   0  0  0  0  0  0  0  0  0  0  0  0
    2.1799   -0.1953   -4.6426 H   0  0  0  0  0  0  0  0  0  0  0  0
   -0.9141   -0.1416   -4.3693 H   0  0  0  0  0  0  0  0  0  0  0  0
    0.1413   -1.4978   -4.8194 H   0  0  0  0  0  0  0  0  0  0  0  0
   -0.9896   -1.6930   -3.5057 H   0  0  0  0  0  0  0  0  0  0  0  0
    3.9165    2.0305    1.5769 H   0  0  0  0  0  0  0  0  0  0  0  0
    2.7921    0.1667    2.5764 H   0  0  0  0  0  0  0  0  0  0  0  0
    3.1835   -0.4580    0.9652 H   0  0  0  0  0  0  0  0  0  0  0  0
    1.5359    0.1044    1.3538 H   0  0  0  0  0  0  0  0  0  0  0  0
    3.7855    4.1188    0.4958 H   0  0  0  0  0  0  0  0  0  0  0  0
    2.1021    4.6227    0.3058 H   0  0  0  0  0  0  0  0  0  0  0  0
    3.0281    4.0463   -1.0985 H   0  0  0  0  0  0  0  0  0  0  0  0
  1  2  1  0
  2  3  2  3
  3  4  1  0
  3  5  1  0
  5  6  2  0
  5  7  1  0
  7  8  1  0
  8  9  1  0
  9 10  1  0
 10 11  1  0
 11 12  1  0
 12 13  2  0
 13 14  1  0
 14 15  2  0
 15 16  1  0
 16 17  2  0
 15 18  1  0
 18 19  2  0
 19 20  1  0
 20 21  2  0
 20 22  1  0
 10 23  1  0
 10 24  1  0
  9 25  1  0
 25 26  1  0
 26 27  2  0
 26 28  1  0
 28 29  2  3
 29 30  1  0
 28 31  1  0
 13  8  1  0
 17 12  1  0
 22 14  1  0
  1 32  1  0
  1 33  1  0
  1 34  1  0
  2 35  1  0
  4 36  1  0
  4 37  1  0
  4 38  1  0
  8 39  1  0
  9 40  1  0
 16 41  1  0
 17 42  1  0
 18 43  1  0
 19 44  1  0
 23 45  1  0
 23 46  1  0
 23 47  1  0
 24 48  1  0
 24 49  1  0
 24 50  1  0
 29 51  1  0
 30 52  1  0
 30 53  1  0
 30 54  1  0
 31 55  1  0
 31 56  1  0
 31 57  1  0
M  END
>  <Name>  (870) 
Praeruptorin B

>  <PubChem ID>  (870) 
5319259

>  <CDB ID>  (870) 
CDB0870

>  <Smiles>  (870) 
CC=C(C)C(=O)OC1C(C(OC2=C1C3=C(C=C2)C=CC(=O)O3)(C)C)OC(=O)C(=CC)C

>  <Chemical class>  (870) 
Angular dihydropyranocoumarins

>  <Natural source>  (870) 
Peucedanum praeruptorum

>  <Molecular Formula>  (870) 
C24H26O7

>  <InChI-Key>  (870) 
PNTWXEIQXBRCPS-UHFFFAOYSA-N

>  <Total Molweight>  (870) 
426.463

>  <cLogP>  (870) 
4.605

>  <cLogS>  (870) 
-4.239

>  <H-Acceptors>  (870) 
7

>  <H-Donors>  (870) 
0

>  <Rotatable Bonds>  (870) 
6

>  <Polar Surface Area>  (870) 
88.13

$$$$
CDB0871
     RDKit          3D

 59 61  0  0  0  0  0  0  0  0999 V2000
   -2.7465    5.5196    0.5716 C   0  0  0  0  0  0  0  0  0  0  0  0
   -2.1943    4.3131   -0.1169 C   0  0  0  0  0  0  0  0  0  0  0  0
   -2.2651    3.0283    0.2864 C   0  0  0  0  0  0  0  0  0  0  0  0
   -2.8882    2.5367    1.5584 C   0  0  0  0  0  0  0  0  0  0  0  0
   -1.6253    2.0131   -0.6058 C   0  0  0  0  0  0  0  0  0  0  0  0
   -0.8396    2.2755   -1.5037 O   0  0  0  0  0  0  0  0  0  0  0  0
   -2.0562    0.7708   -0.2750 O   0  0  0  0  0  0  0  0  0  0  0  0
   -1.5103   -0.3371   -1.0292 C   0  0  0  0  0  0  0  0  0  0  0  0
   -0.3301   -0.9679   -0.2661 C   0  0  0  0  0  0  0  0  0  0  0  0
   -0.0385   -2.3661   -0.7549 C   0  0  0  0  0  0  0  0  0  0  0  0
   -0.9414   -3.0333   -1.5854 C   0  0  0  0  0  0  0  0  0  0  0  0
   -0.6584   -4.3152   -2.0676 C   0  0  0  0  0  0  0  0  0  0  0  0
    0.5158   -4.9715   -1.6957 C   0  0  0  0  0  0  0  0  0  0  0  0
    1.4119   -4.3467   -0.8312 C   0  0  0  0  0  0  0  0  0  0  0  0
    1.1214   -3.0605   -0.3682 C   0  0  0  0  0  0  0  0  0  0  0  0
    2.0132   -2.4252    0.5287 O   0  0  0  0  0  0  0  0  0  0  0  0
    3.2010   -3.0150    0.9347 C   0  0  0  0  0  0  0  0  0  0  0  0
    3.9920   -2.4528    1.6824 O   0  0  0  0  0  0  0  0  0  0  0  0
    3.4746   -4.3674    0.4236 C   0  0  0  0  0  0  0  0  0  0  0  0
    2.6388   -5.0008   -0.4042 C   0  0  0  0  0  0  0  0  0  0  0  0
   -2.1380   -2.5133   -1.9920 O   0  0  0  0  0  0  0  0  0  0  0  0
   -2.6270   -1.3775   -1.2560 C   0  0  0  0  0  0  0  0  0  0  0  0
   -3.2969   -1.8629    0.0431 C   0  0  0  0  0  0  0  0  0  0  0  0
   -3.7237   -0.7598   -2.1431 C   0  0  0  0  0  0  0  0  0  0  0  0
    0.8450   -0.1606   -0.4946 O   0  0  0  0  0  0  0  0  0  0  0  0
    1.1549    0.7438    0.4745 C   0  0  0  0  0  0  0  0  0  0  0  0
    0.4919    0.9482    1.4817 O   0  0  0  0  0  0  0  0  0  0  0  0
    2.4148    1.4847    0.0885 C   0  0  0  0  0  0  0  0  0  0  0  0
    3.1031    2.1571    1.2856 C   0  0  0  0  0  0  0  0  0  0  0  0
    4.1750    3.1315    0.7946 C   0  0  0  0  0  0  0  0  0  0  0  0
    3.7329    1.1218    2.2209 C   0  0  0  0  0  0  0  0  0  0  0  0
   -3.3678    6.0867   -0.1291 H   0  0  0  0  0  0  0  0  0  0  0  0
   -3.3663    5.2844    1.4389 H   0  0  0  0  0  0  0  0  0  0  0  0
   -1.9272    6.1668    0.8993 H   0  0  0  0  0  0  0  0  0  0  0  0
   -1.6871    4.5414   -1.0558 H   0  0  0  0  0  0  0  0  0  0  0  0
   -3.8115    1.9885    1.3438 H   0  0  0  0  0  0  0  0  0  0  0  0
   -2.2026    1.8686    2.0908 H   0  0  0  0  0  0  0  0  0  0  0  0
   -3.1337    3.3426    2.2539 H   0  0  0  0  0  0  0  0  0  0  0  0
   -1.1540    0.0036   -2.0121 H   0  0  0  0  0  0  0  0  0  0  0  0
   -0.5583   -1.0315    0.8058 H   0  0  0  0  0  0  0  0  0  0  0  0
   -1.3665   -4.8095   -2.7294 H   0  0  0  0  0  0  0  0  0  0  0  0
    0.7104   -5.9697   -2.0798 H   0  0  0  0  0  0  0  0  0  0  0  0
    4.3991   -4.8205    0.7601 H   0  0  0  0  0  0  0  0  0  0  0  0
    2.8614   -5.9978   -0.7685 H   0  0  0  0  0  0  0  0  0  0  0  0
   -4.0686   -2.6095   -0.1789 H   0  0  0  0  0  0  0  0  0  0  0  0
   -2.5860   -2.3571    0.7128 H   0  0  0  0  0  0  0  0  0  0  0  0
   -3.7654   -1.0396    0.5920 H   0  0  0  0  0  0  0  0  0  0  0  0
   -4.4939   -1.5020   -2.3840 H   0  0  0  0  0  0  0  0  0  0  0  0
   -3.3071   -0.4295   -3.1018 H   0  0  0  0  0  0  0  0  0  0  0  0
   -4.2096    0.0959   -1.6633 H   0  0  0  0  0  0  0  0  0  0  0  0
    2.1245    2.2376   -0.6537 H   0  0  0  0  0  0  0  0  0  0  0  0
    3.1085    0.7818   -0.3886 H   0  0  0  0  0  0  0  0  0  0  0  0
    2.3631    2.7305    1.8580 H   0  0  0  0  0  0  0  0  0  0  0  0
    4.6635    3.6304    1.6383 H   0  0  0  0  0  0  0  0  0  0  0  0
    4.9464    2.6148    0.2132 H   0  0  0  0  0  0  0  0  0  0  0  0
    3.7339    3.9069    0.1593 H   0  0  0  0  0  0  0  0  0  0  0  0
    4.4920    0.5273    1.7013 H   0  0  0  0  0  0  0  0  0  0  0  0
    2.9802    0.4346    2.6200 H   0  0  0  0  0  0  0  0  0  0  0  0
    4.2155    1.6133    3.0725 H   0  0  0  0  0  0  0  0  0  0  0  0
  1  2  1  0
  2  3  2  3
  3  4  1  0
  3  5  1  0
  5  6  2  0
  5  7  1  0
  7  8  1  0
  8  9  1  0
  9 10  1  0
 10 11  2  0
 11 12  1  0
 12 13  2  0
 13 14  1  0
 14 15  2  0
 15 16  1  0
 16 17  1  0
 17 18  2  0
 17 19  1  0
 19 20  2  0
 11 21  1  0
 21 22  1  0
 22 23  1  0
 22 24  1  0
  9 25  1  0
 25 26  1  0
 26 27  2  0
 26 28  1  0
 28 29  1  0
 29 30  1  0
 29 31  1  0
 22  8  1  0
 15 10  1  0
 20 14  1  0
  1 32  1  0
  1 33  1  0
  1 34  1  0
  2 35  1  0
  4 36  1  0
  4 37  1  0
  4 38  1  0
  8 39  1  0
  9 40  1  0
 12 41  1  0
 13 42  1  0
 19 43  1  0
 20 44  1  0
 23 45  1  0
 23 46  1  0
 23 47  1  0
 24 48  1  0
 24 49  1  0
 24 50  1  0
 28 51  1  0
 28 52  1  0
 29 53  1  0
 30 54  1  0
 30 55  1  0
 30 56  1  0
 31 57  1  0
 31 58  1  0
 31 59  1  0
M  END
>  <Name>  (871) 
Praeruptorin C

>  <PubChem ID>  (871) 
5320692

>  <CDB ID>  (871) 
CDB0871

>  <Smiles>  (871) 
CC=C(C)C(=O)OC1C(C2=C(C=CC3=C2OC(=O)C=C3)OC1(C)C)OC(=O)CC(C)C

>  <Chemical class>  (871) 
Angular dihydropyranocoumarins

>  <Natural source>  (871) 
Peucedanum praeruptorum

>  <Molecular Formula>  (871) 
C24H28O7

>  <InChI-Key>  (871) 
UFUVJROSOIXJGR-UHFFFAOYSA-N

>  <Total Molweight>  (871) 
428.479

>  <cLogP>  (871) 
4.4691

>  <cLogS>  (871) 
-4.503

>  <H-Acceptors>  (871) 
7

>  <H-Donors>  (871) 
0

>  <Rotatable Bonds>  (871) 
7

>  <Polar Surface Area>  (871) 
88.13

$$$$
CDB0872
     RDKit          3D

 57 59  0  0  0  0  0  0  0  0999 V2000
   -4.1400    3.3195    2.4807 C   0  0  0  0  0  0  0  0  0  0  0  0
   -3.5893    2.5102    1.3513 C   0  0  0  0  0  0  0  0  0  0  0  0
   -2.5075    1.7045    1.3546 C   0  0  0  0  0  0  0  0  0  0  0  0
   -1.6003    1.4509    2.5211 C   0  0  0  0  0  0  0  0  0  0  0  0
   -2.1921    1.0087    0.0670 C   0  0  0  0  0  0  0  0  0  0  0  0
   -2.8288    1.1321   -0.9699 O   0  0  0  0  0  0  0  0  0  0  0  0
   -1.1044    0.2099    0.2177 O   0  0  0  0  0  0  0  0  0  0  0  0
   -0.7222   -0.5167   -0.9633 C   0  0  0  0  0  0  0  0  0  0  0  0
    0.1773    0.3699   -1.8440 C   0  0  0  0  0  0  0  0  0  0  0  0
    0.7640   -0.4665   -3.0012 C   0  0  0  0  0  0  0  0  0  0  0  0
    1.5110   -1.6037   -2.5251 O   0  0  0  0  0  0  0  0  0  0  0  0
    1.0546   -2.2457   -1.4068 C   0  0  0  0  0  0  0  0  0  0  0  0
   -0.0017   -1.7971   -0.6055 C   0  0  0  0  0  0  0  0  0  0  0  0
   -0.3870   -2.6091    0.4749 C   0  0  0  0  0  0  0  0  0  0  0  0
    0.2850   -3.7924    0.7958 C   0  0  0  0  0  0  0  0  0  0  0  0
    1.3608   -4.1951    0.0078 C   0  0  0  0  0  0  0  0  0  0  0  0
    1.7380   -3.4250   -1.0927 C   0  0  0  0  0  0  0  0  0  0  0  0
   -0.1523   -4.5778    1.9394 C   0  0  0  0  0  0  0  0  0  0  0  0
   -1.1908   -4.1640    2.6707 C   0  0  0  0  0  0  0  0  0  0  0  0
   -1.9275   -2.9288    2.3609 C   0  0  0  0  0  0  0  0  0  0  0  0
   -2.8666   -2.5649    3.0585 O   0  0  0  0  0  0  0  0  0  0  0  0
   -1.5025   -2.2146    1.2508 O   0  0  0  0  0  0  0  0  0  0  0  0
    1.7708    0.3784   -3.8025 C   0  0  0  0  0  0  0  0  0  0  0  0
   -0.3157   -0.9692   -3.9744 C   0  0  0  0  0  0  0  0  0  0  0  0
    1.2835    0.8832   -1.0464 O   0  0  0  0  0  0  0  0  0  0  0  0
    1.1542    2.1243   -0.5259 C   0  0  0  0  0  0  0  0  0  0  0  0
    0.2202    2.8891   -0.7046 O   0  0  0  0  0  0  0  0  0  0  0  0
    2.3792    2.4959    0.2319 C   0  0  0  0  0  0  0  0  0  0  0  0
    3.0127    1.6698    1.0879 C   0  0  0  0  0  0  0  0  0  0  0  0
    2.6007    0.2934    1.5056 C   0  0  0  0  0  0  0  0  0  0  0  0
    2.8500    3.8960   -0.0284 C   0  0  0  0  0  0  0  0  0  0  0  0
   -4.1270    4.3807    2.2128 H   0  0  0  0  0  0  0  0  0  0  0  0
   -5.1791    3.0295    2.6662 H   0  0  0  0  0  0  0  0  0  0  0  0
   -3.5919    3.2035    3.4169 H   0  0  0  0  0  0  0  0  0  0  0  0
   -4.1625    2.6121    0.4283 H   0  0  0  0  0  0  0  0  0  0  0  0
   -1.8751    2.0156    3.4142 H   0  0  0  0  0  0  0  0  0  0  0  0
   -1.6159    0.3908    2.7950 H   0  0  0  0  0  0  0  0  0  0  0  0
   -0.5711    1.7325    2.2738 H   0  0  0  0  0  0  0  0  0  0  0  0
   -1.6192   -0.8240   -1.5164 H   0  0  0  0  0  0  0  0  0  0  0  0
   -0.3985    1.2090   -2.2534 H   0  0  0  0  0  0  0  0  0  0  0  0
    1.9070   -5.1087    0.2282 H   0  0  0  0  0  0  0  0  0  0  0  0
    2.5677   -3.7476   -1.7182 H   0  0  0  0  0  0  0  0  0  0  0  0
    0.3751   -5.4930    2.1855 H   0  0  0  0  0  0  0  0  0  0  0  0
   -1.5433   -4.7204    3.5305 H   0  0  0  0  0  0  0  0  0  0  0  0
    2.6326    0.6638   -3.1888 H   0  0  0  0  0  0  0  0  0  0  0  0
    1.3069    1.2875   -4.1990 H   0  0  0  0  0  0  0  0  0  0  0  0
    2.1799   -0.1953   -4.6426 H   0  0  0  0  0  0  0  0  0  0  0  0
   -0.9141   -0.1416   -4.3693 H   0  0  0  0  0  0  0  0  0  0  0  0
    0.1413   -1.4978   -4.8194 H   0  0  0  0  0  0  0  0  0  0  0  0
   -0.9896   -1.6930   -3.5057 H   0  0  0  0  0  0  0  0  0  0  0  0
    3.9165    2.0305    1.5769 H   0  0  0  0  0  0  0  0  0  0  0  0
    2.7921    0.1667    2.5764 H   0  0  0  0  0  0  0  0  0  0  0  0
    3.1835   -0.4580    0.9652 H   0  0  0  0  0  0  0  0  0  0  0  0
    1.5359    0.1044    1.3538 H   0  0  0  0  0  0  0  0  0  0  0  0
    3.7855    4.1188    0.4958 H   0  0  0  0  0  0  0  0  0  0  0  0
    2.1021    4.6227    0.3058 H   0  0  0  0  0  0  0  0  0  0  0  0
    3.0281    4.0463   -1.0985 H   0  0  0  0  0  0  0  0  0  0  0  0
  1  2  1  0
  2  3  2  3
  3  4  1  0
  3  5  1  0
  5  6  2  0
  5  7  1  0
  7  8  1  0
  8  9  1  0
  9 10  1  0
 10 11  1  0
 11 12  1  0
 12 13  2  0
 13 14  1  0
 14 15  2  0
 15 16  1  0
 16 17  2  0
 15 18  1  0
 18 19  2  0
 19 20  1  0
 20 21  2  0
 20 22  1  0
 10 23  1  0
 10 24  1  0
  9 25  1  0
 25 26  1  0
 26 27  2  0
 26 28  1  0
 28 29  2  3
 29 30  1  0
 28 31  1  0
 13  8  1  0
 17 12  1  0
 22 14  1  0
  1 32  1  0
  1 33  1  0
  1 34  1  0
  2 35  1  0
  4 36  1  0
  4 37  1  0
  4 38  1  0
  8 39  1  0
  9 40  1  0
 16 41  1  0
 17 42  1  0
 18 43  1  0
 19 44  1  0
 23 45  1  0
 23 46  1  0
 23 47  1  0
 24 48  1  0
 24 49  1  0
 24 50  1  0
 29 51  1  0
 30 52  1  0
 30 53  1  0
 30 54  1  0
 31 55  1  0
 31 56  1  0
 31 57  1  0
M  END
>  <Name>  (872) 
Praeruptorin D

>  <PubChem ID>  (872) 
25717254

>  <CDB ID>  (872) 
CDB0872

>  <Smiles>  (872) 
CC=C(C)C(=O)OC1C(C(OC2=C1C3=C(C=C2)C=CC(=O)O3)(C)C)OC(=O)C(=CC)C

>  <Chemical class>  (872) 
Angular dihydropyranocoumarins

>  <Natural source>  (872) 
Peucedanum praeruptorum

>  <Molecular Formula>  (872) 
C24H26O7

>  <InChI-Key>  (872) 
PNTWXEIQXBRCPS-UHFFFAOYSA-N

>  <Total Molweight>  (872) 
426.463

>  <cLogP>  (872) 
4.605

>  <cLogS>  (872) 
-4.239

>  <H-Acceptors>  (872) 
7

>  <H-Donors>  (872) 
0

>  <Rotatable Bonds>  (872) 
6

>  <Polar Surface Area>  (872) 
88.13

$$$$
CDB0873
     RDKit          3D

 52 54  0  0  0  0  0  0  0  0999 V2000
    4.5375    0.4472    2.8823 C   0  0  0  0  0  0  0  0  0  0  0  0
    3.7977   -0.1518    1.6845 C   0  0  0  0  0  0  0  0  0  0  0  0
    3.9690   -1.6729    1.6808 C   0  0  0  0  0  0  0  0  0  0  0  0
    2.3153    0.2490    1.7293 C   0  0  0  0  0  0  0  0  0  0  0  0
    1.5844   -0.0118    0.4312 C   0  0  0  0  0  0  0  0  0  0  0  0
    2.1033   -0.3215   -0.6318 O   0  0  0  0  0  0  0  0  0  0  0  0
    0.2488    0.1699    0.6248 O   0  0  0  0  0  0  0  0  0  0  0  0
   -0.5959    0.0380   -0.5393 C   0  0  0  0  0  0  0  0  0  0  0  0
   -1.1733   -1.3907   -0.5693 C   0  0  0  0  0  0  0  0  0  0  0  0
   -2.4563   -1.4404   -1.4263 C   0  0  0  0  0  0  0  0  0  0  0  0
   -3.4532   -0.5327   -0.9235 O   0  0  0  0  0  0  0  0  0  0  0  0
   -3.0256    0.7281   -0.6163 C   0  0  0  0  0  0  0  0  0  0  0  0
   -1.6860    1.0775   -0.4353 C   0  0  0  0  0  0  0  0  0  0  0  0
   -1.3976    2.4313   -0.1878 C   0  0  0  0  0  0  0  0  0  0  0  0
   -2.3981    3.3992   -0.0655 C   0  0  0  0  0  0  0  0  0  0  0  0
   -3.7296    3.0149   -0.2066 C   0  0  0  0  0  0  0  0  0  0  0  0
   -4.0393    1.6824   -0.4837 C   0  0  0  0  0  0  0  0  0  0  0  0
   -2.0287    4.7791    0.2085 C   0  0  0  0  0  0  0  0  0  0  0  0
   -0.7405    5.1064    0.3455 C   0  0  0  0  0  0  0  0  0  0  0  0
    0.3401    4.1150    0.2241 C   0  0  0  0  0  0  0  0  0  0  0  0
    1.5122    4.4388    0.3728 O   0  0  0  0  0  0  0  0  0  0  0  0
   -0.0403    2.8132   -0.0663 O   0  0  0  0  0  0  0  0  0  0  0  0
   -3.0886   -2.8400   -1.3130 C   0  0  0  0  0  0  0  0  0  0  0  0
   -2.2166   -1.1571   -2.9212 C   0  0  0  0  0  0  0  0  0  0  0  0
   -0.2065   -2.3097   -1.1335 O   0  0  0  0  0  0  0  0  0  0  0  0
    0.5727   -3.0009   -0.2598 C   0  0  0  0  0  0  0  0  0  0  0  0
    0.5072   -2.9333    0.9590 O   0  0  0  0  0  0  0  0  0  0  0  0
    1.5351   -3.8694   -1.0098 C   0  0  0  0  0  0  0  0  0  0  0  0
    4.4661    1.5400    2.8770 H   0  0  0  0  0  0  0  0  0  0  0  0
    5.6001    0.1834    2.8554 H   0  0  0  0  0  0  0  0  0  0  0  0
    4.1218    0.0845    3.8286 H   0  0  0  0  0  0  0  0  0  0  0  0
    4.2565    0.2472    0.7710 H   0  0  0  0  0  0  0  0  0  0  0  0
    5.0305   -1.9426    1.6663 H   0  0  0  0  0  0  0  0  0  0  0  0
    3.5184   -2.1262    2.5703 H   0  0  0  0  0  0  0  0  0  0  0  0
    3.5044   -2.1242    0.7995 H   0  0  0  0  0  0  0  0  0  0  0  0
    2.2278    1.3241    1.9281 H   0  0  0  0  0  0  0  0  0  0  0  0
    1.8062   -0.2947    2.5340 H   0  0  0  0  0  0  0  0  0  0  0  0
   -0.0286    0.2405   -1.4572 H   0  0  0  0  0  0  0  0  0  0  0  0
   -1.4333   -1.6889    0.4566 H   0  0  0  0  0  0  0  0  0  0  0  0
   -4.5352    3.7388   -0.1134 H   0  0  0  0  0  0  0  0  0  0  0  0
   -5.0781    1.3849   -0.6097 H   0  0  0  0  0  0  0  0  0  0  0  0
   -2.8086    5.5269    0.3027 H   0  0  0  0  0  0  0  0  0  0  0  0
   -0.4274    6.1220    0.5545 H   0  0  0  0  0  0  0  0  0  0  0  0
   -3.3172   -3.0792   -0.2679 H   0  0  0  0  0  0  0  0  0  0  0  0
   -2.4348   -3.6221   -1.7123 H   0  0  0  0  0  0  0  0  0  0  0  0
   -4.0427   -2.8813   -1.8517 H   0  0  0  0  0  0  0  0  0  0  0  0
   -3.1634   -1.1846   -3.4735 H   0  0  0  0  0  0  0  0  0  0  0  0
   -1.8001   -0.1589   -3.0893 H   0  0  0  0  0  0  0  0  0  0  0  0
   -1.5373   -1.8887   -3.3705 H   0  0  0  0  0  0  0  0  0  0  0  0
    2.1818   -3.2506   -1.6368 H   0  0  0  0  0  0  0  0  0  0  0  0
    2.1603   -4.4157   -0.2978 H   0  0  0  0  0  0  0  0  0  0  0  0
    0.9855   -4.5922   -1.6178 H   0  0  0  0  0  0  0  0  0  0  0  0
  1  2  1  0
  2  3  1  0
  2  4  1  0
  4  5  1  0
  5  6  2  0
  5  7  1  0
  7  8  1  0
  8  9  1  0
  9 10  1  0
 10 11  1  0
 11 12  1  0
 12 13  2  0
 13 14  1  0
 14 15  2  0
 15 16  1  0
 16 17  2  0
 15 18  1  0
 18 19  2  0
 19 20  1  0
 20 21  2  0
 20 22  1  0
 10 23  1  0
 10 24  1  0
  9 25  1  0
 25 26  1  0
 26 27  2  0
 26 28  1  0
 13  8  1  0
 17 12  1  0
 22 14  1  0
  1 29  1  0
  1 30  1  0
  1 31  1  0
  2 32  1  0
  3 33  1  0
  3 34  1  0
  3 35  1  0
  4 36  1  0
  4 37  1  0
  8 38  1  0
  9 39  1  0
 16 40  1  0
 17 41  1  0
 18 42  1  0
 19 43  1  0
 23 44  1  0
 23 45  1  0
 23 46  1  0
 24 47  1  0
 24 48  1  0
 24 49  1  0
 28 50  1  0
 28 51  1  0
 28 52  1  0
M  END
>  <Name>  (873) 
Corymbocoumarin

>  <PubChem ID>  (873) 


>  <CDB ID>  (873) 
CDB0873

>  <Smiles>  (873) 
CC(C)CC(=O)OC1C(C(OC2=C1C3=C(C=C2)C=CC(=O)O3)(C)C)OC(=O)C

>  <Chemical class>  (873) 
Angular dihydropyranocoumarins

>  <Natural source>  (873) 
Saposhnikovia divaricata

>  <Molecular Formula>  (873) 
C21H24O7

>  <InChI-Key>  (873) 
KLUTZDJBVDPOFE-UHFFFAOYSA-N

>  <Total Molweight>  (873) 
388.415

>  <cLogP>  (873) 
3.2061

>  <cLogS>  (873) 
-4.067

>  <H-Acceptors>  (873) 
7

>  <H-Donors>  (873) 
0

>  <Rotatable Bonds>  (873) 
6

>  <Polar Surface Area>  (873) 
88.13

$$$$
CDB0874
     RDKit          3D

 61 63  0  0  0  0  0  0  0  0999 V2000
   -4.5558   -1.9147    0.4582 C   0  0  0  0  0  0  0  0  0  0  0  0
   -3.3719   -2.8751    0.3440 C   0  0  0  0  0  0  0  0  0  0  0  0
   -3.4432   -3.6852   -0.9504 C   0  0  0  0  0  0  0  0  0  0  0  0
   -2.0226   -2.1645    0.5290 C   0  0  0  0  0  0  0  0  0  0  0  0
   -1.7502   -1.0195   -0.4230 C   0  0  0  0  0  0  0  0  0  0  0  0
   -2.1612   -0.9228   -1.5703 O   0  0  0  0  0  0  0  0  0  0  0  0
   -0.9400   -0.1049    0.1846 O   0  0  0  0  0  0  0  0  0  0  0  0
   -0.6068    1.0370   -0.6245 C   0  0  0  0  0  0  0  0  0  0  0  0
    0.6382    0.7215   -1.4737 C   0  0  0  0  0  0  0  0  0  0  0  0
    1.1408    2.0089   -2.1626 C   0  0  0  0  0  0  0  0  0  0  0  0
    1.4494    3.0461   -1.2095 O   0  0  0  0  0  0  0  0  0  0  0  0
    0.6390    3.1655   -0.1137 C   0  0  0  0  0  0  0  0  0  0  0  0
   -0.3627    2.2540    0.2371 C   0  0  0  0  0  0  0  0  0  0  0  0
   -1.1571    2.5593    1.3556 C   0  0  0  0  0  0  0  0  0  0  0  0
   -0.9316    3.6909    2.1445 C   0  0  0  0  0  0  0  0  0  0  0  0
    0.1025    4.5591    1.8012 C   0  0  0  0  0  0  0  0  0  0  0  0
    0.8794    4.2977    0.6716 C   0  0  0  0  0  0  0  0  0  0  0  0
   -1.7800    3.9388    3.2999 C   0  0  0  0  0  0  0  0  0  0  0  0
   -2.7695    3.0897    3.5916 C   0  0  0  0  0  0  0  0  0  0  0  0
   -3.0466    1.8961    2.7771 C   0  0  0  0  0  0  0  0  0  0  0  0
   -3.9568    1.1302    3.0702 O   0  0  0  0  0  0  0  0  0  0  0  0
   -2.2313    1.6947    1.6738 O   0  0  0  0  0  0  0  0  0  0  0  0
    2.4607    1.7276   -2.9031 C   0  0  0  0  0  0  0  0  0  0  0  0
    0.1339    2.5675   -3.1824 C   0  0  0  0  0  0  0  0  0  0  0  0
    1.7038    0.2196   -0.6139 O   0  0  0  0  0  0  0  0  0  0  0  0
    1.8284   -1.1284   -0.4891 C   0  0  0  0  0  0  0  0  0  0  0  0
    1.1296   -1.9559   -1.0543 O   0  0  0  0  0  0  0  0  0  0  0  0
    2.9408   -1.4400    0.4870 C   0  0  0  0  0  0  0  0  0  0  0  0
    3.4339   -2.8919    0.3940 C   0  0  0  0  0  0  0  0  0  0  0  0
    4.2141   -3.1355   -0.9004 C   0  0  0  0  0  0  0  0  0  0  0  0
    4.3151   -3.2242    1.5995 C   0  0  0  0  0  0  0  0  0  0  0  0
   -5.5012   -2.4679    0.4469 H   0  0  0  0  0  0  0  0  0  0  0  0
   -4.5107   -1.3522    1.3965 H   0  0  0  0  0  0  0  0  0  0  0  0
   -4.5820   -1.1974   -0.3680 H   0  0  0  0  0  0  0  0  0  0  0  0
   -3.4595   -3.5944    1.1698 H   0  0  0  0  0  0  0  0  0  0  0  0
   -4.3498   -4.3001   -0.9652 H   0  0  0  0  0  0  0  0  0  0  0  0
   -2.5842   -4.3587   -1.0368 H   0  0  0  0  0  0  0  0  0  0  0  0
   -3.4678   -3.0467   -1.8379 H   0  0  0  0  0  0  0  0  0  0  0  0
   -1.9913   -1.7662    1.5516 H   0  0  0  0  0  0  0  0  0  0  0  0
   -1.1991   -2.8811    0.4327 H   0  0  0  0  0  0  0  0  0  0  0  0
   -1.4540    1.2972   -1.2723 H   0  0  0  0  0  0  0  0  0  0  0  0
    0.3997   -0.0329   -2.2336 H   0  0  0  0  0  0  0  0  0  0  0  0
    0.3080    5.4479    2.3924 H   0  0  0  0  0  0  0  0  0  0  0  0
    1.6748    4.9858    0.3931 H   0  0  0  0  0  0  0  0  0  0  0  0
   -1.5951    4.8136    3.9138 H   0  0  0  0  0  0  0  0  0  0  0  0
   -3.4198    3.2401    4.4446 H   0  0  0  0  0  0  0  0  0  0  0  0
    3.2579    1.4422   -2.2076 H   0  0  0  0  0  0  0  0  0  0  0  0
    2.3430    0.9319   -3.6461 H   0  0  0  0  0  0  0  0  0  0  0  0
    2.8200    2.6281   -3.4153 H   0  0  0  0  0  0  0  0  0  0  0  0
   -0.7854    2.9209   -2.7052 H   0  0  0  0  0  0  0  0  0  0  0  0
    0.5509    3.4401   -3.6991 H   0  0  0  0  0  0  0  0  0  0  0  0
   -0.1311    1.8167   -3.9340 H   0  0  0  0  0  0  0  0  0  0  0  0
    3.7760   -0.7534    0.3036 H   0  0  0  0  0  0  0  0  0  0  0  0
    2.5447   -1.2403    1.4898 H   0  0  0  0  0  0  0  0  0  0  0  0
    2.5729   -3.5719    0.4083 H   0  0  0  0  0  0  0  0  0  0  0  0
    3.5927   -2.9492   -1.7818 H   0  0  0  0  0  0  0  0  0  0  0  0
    4.5594   -4.1735   -0.9539 H   0  0  0  0  0  0  0  0  0  0  0  0
    5.0930   -2.4847   -0.9631 H   0  0  0  0  0  0  0  0  0  0  0  0
    3.7585   -3.0992    2.5343 H   0  0  0  0  0  0  0  0  0  0  0  0
    4.6611   -4.2623    1.5545 H   0  0  0  0  0  0  0  0  0  0  0  0
    5.1961   -2.5744    1.6397 H   0  0  0  0  0  0  0  0  0  0  0  0
  1  2  1  0
  2  3  1  0
  2  4  1  0
  4  5  1  0
  5  6  2  0
  5  7  1  0
  7  8  1  0
  8  9  1  0
  9 10  1  0
 10 11  1  0
 11 12  1  0
 12 13  2  0
 13 14  1  0
 14 15  2  0
 15 16  1  0
 16 17  2  0
 15 18  1  0
 18 19  2  0
 19 20  1  0
 20 21  2  0
 20 22  1  0
 10 23  1  0
 10 24  1  0
  9 25  1  0
 25 26  1  0
 26 27  2  0
 26 28  1  0
 28 29  1  0
 29 30  1  0
 29 31  1  0
 13  8  1  0
 17 12  1  0
 22 14  1  0
  1 32  1  0
  1 33  1  0
  1 34  1  0
  2 35  1  0
  3 36  1  0
  3 37  1  0
  3 38  1  0
  4 39  1  0
  4 40  1  0
  8 41  1  0
  9 42  1  0
 16 43  1  0
 17 44  1  0
 18 45  1  0
 19 46  1  0
 23 47  1  0
 23 48  1  0
 23 49  1  0
 24 50  1  0
 24 51  1  0
 24 52  1  0
 28 53  1  0
 28 54  1  0
 29 55  1  0
 30 56  1  0
 30 57  1  0
 30 58  1  0
 31 59  1  0
 31 60  1  0
 31 61  1  0
M  END
>  <Name>  (874) 
3',4'-Diisovalerylkhellactone

>  <PubChem ID>  (874) 
44584701

>  <CDB ID>  (874) 
CDB0874

>  <Smiles>  (874) 
CC(C)CC(=O)OC1C(C(OC2=C1C3=C(C=C2)C=CC(=O)O3)(C)C)OC(=O)CC(C)C

>  <Chemical class>  (874) 
Angular dihydropyranocoumarins

>  <Natural source>  (874) 
Saposhnikovia divaricata

>  <Molecular Formula>  (874) 
C24H30O7

>  <InChI-Key>  (874) 
LJYPJWICCCIAKW-UHFFFAOYSA-N

>  <Total Molweight>  (874) 
430.495

>  <cLogP>  (874) 
4.3332

>  <cLogS>  (874) 
-4.767

>  <H-Acceptors>  (874) 
7

>  <H-Donors>  (874) 
0

>  <Rotatable Bonds>  (874) 
8

>  <Polar Surface Area>  (874) 
88.13

$$$$
CDB0875
     RDKit          3D

 44 46  0  0  0  0  0  0  0  0999 V2000
    5.6105    0.9403   -1.3125 C   0  0  0  0  0  0  0  0  0  0  0  0
    5.3706    0.3702    0.0507 C   0  0  0  0  0  0  0  0  0  0  0  0
    4.1891    0.0898    0.6350 C   0  0  0  0  0  0  0  0  0  0  0  0
    4.1043   -0.5105    2.0081 C   0  0  0  0  0  0  0  0  0  0  0  0
    2.8964    0.4171   -0.0281 C   0  0  0  0  0  0  0  0  0  0  0  0
    2.6919    1.4033   -0.7160 O   0  0  0  0  0  0  0  0  0  0  0  0
    1.9874   -0.5441    0.2716 O   0  0  0  0  0  0  0  0  0  0  0  0
    0.6804   -0.3837   -0.3171 C   0  0  0  0  0  0  0  0  0  0  0  0
   -0.1346    0.6325    0.4835 C   0  0  0  0  0  0  0  0  0  0  0  0
   -1.5891    0.5647    0.1225 C   0  0  0  0  0  0  0  0  0  0  0  0
   -2.1132   -0.5532   -0.5365 C   0  0  0  0  0  0  0  0  0  0  0  0
   -3.4637   -0.6006   -0.8771 C   0  0  0  0  0  0  0  0  0  0  0  0
   -4.2896    0.4651   -0.5331 C   0  0  0  0  0  0  0  0  0  0  0  0
   -3.7990    1.5806    0.1397 C   0  0  0  0  0  0  0  0  0  0  0  0
   -2.4428    1.6268    0.4697 C   0  0  0  0  0  0  0  0  0  0  0  0
   -4.7127    2.6606    0.4731 C   0  0  0  0  0  0  0  0  0  0  0  0
   -6.0004    2.5612    0.1294 C   0  0  0  0  0  0  0  0  0  0  0  0
   -6.5421    1.3893   -0.5815 C   0  0  0  0  0  0  0  0  0  0  0  0
   -7.7301    1.3333   -0.8775 O   0  0  0  0  0  0  0  0  0  0  0  0
   -5.6492    0.3723   -0.8897 O   0  0  0  0  0  0  0  0  0  0  0  0
   -1.3711   -1.6396   -0.9070 O   0  0  0  0  0  0  0  0  0  0  0  0
   -0.0477   -1.7494   -0.3473 C   0  0  0  0  0  0  0  0  0  0  0  0
   -0.1487   -2.4211    1.0344 C   0  0  0  0  0  0  0  0  0  0  0  0
    0.7146   -2.7076   -1.2799 C   0  0  0  0  0  0  0  0  0  0  0  0
    4.7443    0.8662   -1.9737 H   0  0  0  0  0  0  0  0  0  0  0  0
    6.4251    0.3905   -1.7958 H   0  0  0  0  0  0  0  0  0  0  0  0
    5.9101    1.9894   -1.2331 H   0  0  0  0  0  0  0  0  0  0  0  0
    6.2835    0.1487    0.6021 H   0  0  0  0  0  0  0  0  0  0  0  0
    5.0807   -0.5377    2.5037 H   0  0  0  0  0  0  0  0  0  0  0  0
    3.7297   -1.5382    1.9589 H   0  0  0  0  0  0  0  0  0  0  0  0
    3.4327    0.0769    2.6434 H   0  0  0  0  0  0  0  0  0  0  0  0
    0.7750   -0.0271   -1.3536 H   0  0  0  0  0  0  0  0  0  0  0  0
   -0.0167    0.4590    1.5603 H   0  0  0  0  0  0  0  0  0  0  0  0
    0.2508    1.6410    0.2911 H   0  0  0  0  0  0  0  0  0  0  0  0
   -3.8679   -1.4623   -1.3997 H   0  0  0  0  0  0  0  0  0  0  0  0
   -2.0375    2.4915    0.9917 H   0  0  0  0  0  0  0  0  0  0  0  0
   -4.3361    3.5332    0.9951 H   0  0  0  0  0  0  0  0  0  0  0  0
   -6.7145    3.3430    0.3578 H   0  0  0  0  0  0  0  0  0  0  0  0
   -0.6684   -3.3835    0.9566 H   0  0  0  0  0  0  0  0  0  0  0  0
    0.8378   -2.5998    1.4741 H   0  0  0  0  0  0  0  0  0  0  0  0
   -0.7344   -1.8216    1.7386 H   0  0  0  0  0  0  0  0  0  0  0  0
    0.7781   -2.2936   -2.2930 H   0  0  0  0  0  0  0  0  0  0  0  0
    0.1865   -3.6639   -1.3731 H   0  0  0  0  0  0  0  0  0  0  0  0
    1.7300   -2.9086   -0.9234 H   0  0  0  0  0  0  0  0  0  0  0  0
  1  2  1  0
  2  3  2  3
  3  4  1  0
  3  5  1  0
  5  6  2  0
  5  7  1  0
  7  8  1  0
  8  9  1  0
  9 10  1  0
 10 11  2  0
 11 12  1  0
 12 13  2  0
 13 14  1  0
 14 15  2  0
 14 16  1  0
 16 17  2  0
 17 18  1  0
 18 19  2  0
 18 20  1  0
 11 21  1  0
 21 22  1  0
 22 23  1  0
 22 24  1  0
 22  8  1  0
 15 10  1  0
 20 13  1  0
  1 25  1  0
  1 26  1  0
  1 27  1  0
  2 28  1  0
  4 29  1  0
  4 30  1  0
  4 31  1  0
  8 32  1  0
  9 33  1  0
  9 34  1  0
 12 35  1  0
 15 36  1  0
 16 37  1  0
 17 38  1  0
 23 39  1  0
 23 40  1  0
 23 41  1  0
 24 42  1  0
 24 43  1  0
 24 44  1  0
M  END
>  <Name>  (875) 
Decursinol Angelate

>  <PubChem ID>  (875) 
776123

>  <CDB ID>  (875) 
CDB0875

>  <Smiles>  (875) 
CC=C(C)C(=O)OC1CC2=C(C=C3C(=C2)C=CC(=O)O3)OC1(C)C

>  <Chemical class>  (875) 
Linear dihydropyranocoumarins

>  <Natural source>  (875) 
Peucedanum praeruptorum

>  <Molecular Formula>  (875) 
C19H20O5

>  <InChI-Key>  (875) 
AGABNGOXUSXQDD-MRXNPFEDSA-N

>  <Total Molweight>  (875) 
328.363

>  <cLogP>  (875) 
3.5834

>  <cLogS>  (875) 
-3.941

>  <H-Acceptors>  (875) 
5

>  <H-Donors>  (875) 
0

>  <Rotatable Bonds>  (875) 
3

>  <Polar Surface Area>  (875) 
61.83

$$$$
CDB0876
     RDKit          3D

 31 33  0  0  0  0  0  0  0  0999 V2000
   -2.8714    0.0123   -1.3285 C   0  0  0  0  0  0  0  0  0  0  0  0
   -2.4837   -0.4035    0.0987 C   0  0  0  0  0  0  0  0  0  0  0  0
   -2.2776    0.7976    1.0334 C   0  0  0  0  0  0  0  0  0  0  0  0
   -1.0830    1.6331    0.6001 C   0  0  0  0  0  0  0  0  0  0  0  0
    0.0864    0.7479    0.2836 C   0  0  0  0  0  0  0  0  0  0  0  0
   -0.0986   -0.6148    0.0191 C   0  0  0  0  0  0  0  0  0  0  0  0
   -1.3146   -1.2404    0.0406 O   0  0  0  0  0  0  0  0  0  0  0  0
    0.9940   -1.4305   -0.2689 C   0  0  0  0  0  0  0  0  0  0  0  0
    2.2670   -0.8707   -0.3142 C   0  0  0  0  0  0  0  0  0  0  0  0
    2.4771    0.4848   -0.0759 C   0  0  0  0  0  0  0  0  0  0  0  0
    1.3797    1.2958    0.2216 C   0  0  0  0  0  0  0  0  0  0  0  0
    3.8305    1.0105   -0.1430 C   0  0  0  0  0  0  0  0  0  0  0  0
    4.8421    0.1855   -0.4299 C   0  0  0  0  0  0  0  0  0  0  0  0
    4.6433   -1.2525   -0.6846 C   0  0  0  0  0  0  0  0  0  0  0  0
    5.5969   -1.9773   -0.9447 O   0  0  0  0  0  0  0  0  0  0  0  0
    3.3421   -1.7299   -0.6153 O   0  0  0  0  0  0  0  0  0  0  0  0
   -3.6034   -1.2869    0.6690 C   0  0  0  0  0  0  0  0  0  0  0  0
   -3.7742    0.6319   -1.3331 H   0  0  0  0  0  0  0  0  0  0  0  0
   -3.0553   -0.8710   -1.9514 H   0  0  0  0  0  0  0  0  0  0  0  0
   -2.0702    0.5675   -1.8268 H   0  0  0  0  0  0  0  0  0  0  0  0
   -2.0864    0.4319    2.0521 H   0  0  0  0  0  0  0  0  0  0  0  0
   -3.1756    1.4249    1.0806 H   0  0  0  0  0  0  0  0  0  0  0  0
   -1.3316    2.2281   -0.2862 H   0  0  0  0  0  0  0  0  0  0  0  0
   -0.8242    2.3311    1.4051 H   0  0  0  0  0  0  0  0  0  0  0  0
    0.8515   -2.4895   -0.4615 H   0  0  0  0  0  0  0  0  0  0  0  0
    1.5214    2.3575    0.4122 H   0  0  0  0  0  0  0  0  0  0  0  0
    4.0006    2.0653    0.0411 H   0  0  0  0  0  0  0  0  0  0  0  0
    5.8653    0.5355   -0.4895 H   0  0  0  0  0  0  0  0  0  0  0  0
   -3.3395   -1.6544    1.6675 H   0  0  0  0  0  0  0  0  0  0  0  0
   -3.7567   -2.1758    0.0460 H   0  0  0  0  0  0  0  0  0  0  0  0
   -4.5517   -0.7439    0.7384 H   0  0  0  0  0  0  0  0  0  0  0  0
  1  2  1  0
  2  3  1  0
  3  4  1  0
  4  5  1  0
  5  6  2  0
  6  7  1  0
  6  8  1  0
  8  9  2  0
  9 10  1  0
 10 11  2  0
 10 12  1  0
 12 13  2  0
 13 14  1  0
 14 15  2  0
 14 16  1  0
  2 17  1  0
  7  2  1  0
 11  5  1  0
 16  9  1  0
  1 18  1  0
  1 19  1  0
  1 20  1  0
  3 21  1  0
  3 22  1  0
  4 23  1  0
  4 24  1  0
  8 25  1  0
 11 26  1  0
 12 27  1  0
 13 28  1  0
 17 29  1  0
 17 30  1  0
 17 31  1  0
M  END
>  <Name>  (876) 
Dihydroxanthyletin

>  <PubChem ID>  (876) 
10466390

>  <CDB ID>  (876) 
CDB0876

>  <Smiles>  (876) 
CC1(CCC2=C(O1)C=C3C(=C2)C=CC(=O)O3)C

>  <Chemical class>  (876) 
Linear dihydropyranocoumarins

>  <Natural source>  (876) 
Ficus tsiangii

>  <Molecular Formula>  (876) 
C14H14O3

>  <InChI-Key>  (876) 
OHVLVQZSSLHFMS-UHFFFAOYSA-N

>  <Total Molweight>  (876) 
230.262

>  <cLogP>  (876) 
2.6879

>  <cLogS>  (876) 
-3.494

>  <H-Acceptors>  (876) 
3

>  <H-Donors>  (876) 
0

>  <Rotatable Bonds>  (876) 
0

>  <Polar Surface Area>  (876) 
35.53

$$$$
CDB0877
     RDKit          3D

 48 51  0  0  0  0  0  0  0  0999 V2000
   -0.2293    2.1685   -2.0800 C   0  0  0  0  0  0  0  0  0  0  0  0
   -0.4294    2.0181   -0.6710 O   0  0  0  0  0  0  0  0  0  0  0  0
   -0.6821    0.7020   -0.3608 C   0  0  0  0  0  0  0  0  0  0  0  0
   -2.0223    0.2798   -0.2441 C   0  0  0  0  0  0  0  0  0  0  0  0
   -3.1604    1.2461   -0.4273 C   0  0  0  0  0  0  0  0  0  0  0  0
   -4.4665    0.5010   -0.6538 C   0  0  0  0  0  0  0  0  0  0  0  0
   -4.6246   -0.6431    0.3581 C   0  0  2  0  0  0  0  0  0  0  0  0
   -5.8928   -1.4341   -0.0041 C   0  0  0  0  0  0  0  0  0  0  0  0
   -4.7360   -0.1597    1.8239 C   0  0  0  0  0  0  0  0  0  0  0  0
   -5.7798    0.7945    1.9858 O   0  0  0  0  0  0  0  0  0  0  0  0
   -3.5342   -1.5807    0.2545 O   0  0  0  0  0  0  0  0  0  0  0  0
   -2.2805   -1.0539    0.0996 C   0  0  0  0  0  0  0  0  0  0  0  0
   -1.2321   -1.9495    0.2998 C   0  0  0  0  0  0  0  0  0  0  0  0
    0.0804   -1.4960    0.2103 C   0  0  0  0  0  0  0  0  0  0  0  0
    0.3821   -0.1759   -0.0960 C   0  0  0  0  0  0  0  0  0  0  0  0
    1.7862    0.2197   -0.1097 C   0  0  0  0  0  0  0  0  0  0  0  0
    2.7755   -0.6615    0.1229 C   0  0  0  0  0  0  0  0  0  0  0  0
    4.1876   -0.1969    0.0715 C   0  0  0  0  0  0  0  0  0  0  0  0
    5.1310   -0.4747    1.0772 C   0  0  0  0  0  0  0  0  0  0  0  0
    4.8479   -1.2608    2.1621 O   0  0  0  0  0  0  0  0  0  0  0  0
    6.4276    0.0412    1.0304 C   0  0  0  0  0  0  0  0  0  0  0  0
    6.8120    0.8166   -0.0550 C   0  0  0  0  0  0  0  0  0  0  0  0
    8.0688    1.3351   -0.1507 O   0  0  0  0  0  0  0  0  0  0  0  0
    5.9219    1.0808   -1.0862 C   0  0  0  0  0  0  0  0  0  0  0  0
    4.6191    0.5771   -1.0241 C   0  0  0  0  0  0  0  0  0  0  0  0
    2.4385   -2.0721    0.4627 C   0  0  0  0  0  0  0  0  0  0  0  0
    3.3096   -2.8869    0.7624 O   0  0  0  0  0  0  0  0  0  0  0  0
    1.0979   -2.4321    0.4622 O   0  0  0  0  0  0  0  0  0  0  0  0
   -1.0539    1.7381   -2.6586 H   0  0  0  0  0  0  0  0  0  0  0  0
   -0.1857    3.2398   -2.2972 H   0  0  0  0  0  0  0  0  0  0  0  0
    0.7195    1.7211   -2.3929 H   0  0  0  0  0  0  0  0  0  0  0  0
   -2.9858    1.9012   -1.2871 H   0  0  0  0  0  0  0  0  0  0  0  0
   -3.2323    1.8827    0.4622 H   0  0  0  0  0  0  0  0  0  0  0  0
   -5.3093    1.2006   -0.6116 H   0  0  0  0  0  0  0  0  0  0  0  0
   -4.4486    0.0830   -1.6702 H   0  0  0  0  0  0  0  0  0  0  0  0
   -5.8107   -1.8612   -1.0104 H   0  0  0  0  0  0  0  0  0  0  0  0
   -6.0312   -2.2818    0.6770 H   0  0  0  0  0  0  0  0  0  0  0  0
   -6.7906   -0.8088    0.0332 H   0  0  0  0  0  0  0  0  0  0  0  0
   -4.9327   -1.0096    2.4883 H   0  0  0  0  0  0  0  0  0  0  0  0
   -3.8005    0.2914    2.1711 H   0  0  0  0  0  0  0  0  0  0  0  0
   -5.8048    1.0281    2.9303 H   0  0  0  0  0  0  0  0  0  0  0  0
   -1.4387   -2.9860    0.5508 H   0  0  0  0  0  0  0  0  0  0  0  0
    1.9981    1.2677   -0.3011 H   0  0  0  0  0  0  0  0  0  0  0  0
    4.4207   -2.0765    1.8190 H   0  0  0  0  0  0  0  0  0  0  0  0
    7.1165   -0.1843    1.8378 H   0  0  0  0  0  0  0  0  0  0  0  0
    8.5722    1.0707    0.6376 H   0  0  0  0  0  0  0  0  0  0  0  0
    6.2381    1.6805   -1.9354 H   0  0  0  0  0  0  0  0  0  0  0  0
    3.9440    0.8003   -1.8478 H   0  0  0  0  0  0  0  0  0  0  0  0
  1  2  1  0
  2  3  1  0
  3  4  1  0
  4  5  1  0
  5  6  1  0
  6  7  1  0
  7  8  1  6
  7  9  1  0
  9 10  1  0
  7 11  1  0
 11 12  1  0
 12 13  1  0
 13 14  2  0
 14 15  1  0
 15 16  1  0
 16 17  2  0
 17 18  1  0
 18 19  2  0
 19 20  1  0
 19 21  1  0
 21 22  2  0
 22 23  1  0
 22 24  1  0
 24 25  2  0
 17 26  1  0
 26 27  2  0
 26 28  1  0
 15  3  2  0
 25 18  1  0
 12  4  2  0
 28 14  1  0
  1 29  1  0
  1 30  1  0
  1 31  1  0
  5 32  1  0
  5 33  1  0
  6 34  1  0
  6 35  1  0
  8 36  1  0
  8 37  1  0
  8 38  1  0
  9 39  1  0
  9 40  1  0
 10 41  1  0
 13 42  1  0
 16 43  1  0
 20 44  1  0
 21 45  1  0
 23 46  1  0
 24 47  1  0
 25 48  1  0
M  END
>  <Name>  (877) 
Licopyranocoumarin

>  <PubChem ID>  (877) 
122851

>  <CDB ID>  (877) 
CDB0877

>  <Smiles>  (877) 
COC1=C2CC[C@](C)(CO)OC2=CC2=C1C=C(C1=C(O)C=C(O)C=C1)C(=O)O2

>  <Chemical class>  (877) 
Linear dihydropyranocoumarins

>  <Natural source>  (877) 
Glycyrrhiza uralensis

>  <Molecular Formula>  (877) 
C21H20O7

>  <InChI-Key>  (877) 
MOBCUWLJOZHPQL-OAQYLSRUSA-N

>  <Total Molweight>  (877) 
384.383

>  <cLogP>  (877) 
2.255

>  <cLogS>  (877) 
-3.37

>  <H-Acceptors>  (877) 
7

>  <H-Donors>  (877) 
3

>  <Rotatable Bonds>  (877) 
3

>  <Polar Surface Area>  (877) 
105.45

$$$$
CDB0878
     RDKit          3D

 65 67  0  0  0  0  0  0  0  0999 V2000
   -7.3322    2.1778   -0.1222 C   0  0  0  0  0  0  0  0  0  0  0  0
   -6.2898    2.1150   -1.2226 C   0  0  0  0  0  0  0  0  0  0  0  0
   -5.1347    1.3941   -0.7699 O   0  0  0  0  0  0  0  0  0  0  0  0
   -4.1977    2.1313   -0.1116 C   0  0  0  0  0  0  0  0  0  0  0  0
   -4.2670    3.3313    0.1149 O   0  0  0  0  0  0  0  0  0  0  0  0
   -3.0377    1.2602    0.2934 C   0  0  0  0  0  0  0  0  0  0  0  0
   -2.1259    0.9912   -0.9054 C   0  0  0  0  0  0  0  0  0  0  0  0
   -0.8220    0.2372   -0.5238 C   0  0  0  0  0  0  0  0  0  0  0  0
   -1.1394   -1.0872    0.1901 C   0  0  0  0  0  0  0  0  0  0  0  0
   -0.8794   -1.3374    1.4999 C   0  0  0  0  0  0  0  0  0  0  0  0
   -0.1877   -0.3858    2.4498 C   0  0  0  0  0  0  0  0  0  0  0  0
   -1.2584   -2.6285    2.1913 C   0  0  0  0  0  0  0  0  0  0  0  0
   -1.7585   -2.1124   -0.7457 C   0  0  0  0  0  0  0  0  0  0  0  0
   -0.8707   -2.3754   -1.9610 C   0  0  0  0  0  0  0  0  0  0  0  0
   -0.4659   -1.0891   -2.7035 C   0  0  0  0  0  0  0  0  0  0  0  0
    0.1584   -0.0208   -1.7373 C   0  0  0  0  0  0  0  0  0  0  0  0
    0.4009    1.3020   -2.5069 C   0  0  0  0  0  0  0  0  0  0  0  0
    1.5437   -0.4986   -1.1876 C   0  0  0  0  0  0  0  0  0  0  0  0
    2.0909    0.4965   -0.3149 O   0  0  0  0  0  0  0  0  0  0  0  0
    3.2340    0.1794    0.3631 C   0  0  0  0  0  0  0  0  0  0  0  0
    3.6277    1.1233    1.3124 C   0  0  0  0  0  0  0  0  0  0  0  0
    4.7784    0.9035    2.0655 C   0  0  0  0  0  0  0  0  0  0  0  0
    5.5557   -0.2381    1.8932 C   0  0  0  0  0  0  0  0  0  0  0  0
    5.1651   -1.1784    0.9397 C   0  0  0  0  0  0  0  0  0  0  0  0
    4.0080   -0.9693    0.1759 C   0  0  0  0  0  0  0  0  0  0  0  0
    6.7458   -0.4109    2.7089 C   0  0  0  0  0  0  0  0  0  0  0  0
    7.0682    0.5261    3.6058 C   0  0  0  0  0  0  0  0  0  0  0  0
    6.2597    1.7419    3.8067 C   0  0  0  0  0  0  0  0  0  0  0  0
    6.5873    2.5778    4.6410 O   0  0  0  0  0  0  0  0  0  0  0  0
    5.1290    1.8838    3.0143 O   0  0  0  0  0  0  0  0  0  0  0  0
    0.4173   -1.4617   -3.9022 C   0  0  0  0  0  0  0  0  0  0  0  0
   -6.9529    2.7227    0.7480 H   0  0  0  0  0  0  0  0  0  0  0  0
   -7.5905    1.1704    0.2206 H   0  0  0  0  0  0  0  0  0  0  0  0
   -8.2403    2.6739   -0.4761 H   0  0  0  0  0  0  0  0  0  0  0  0
   -6.0210    3.1160   -1.5790 H   0  0  0  0  0  0  0  0  0  0  0  0
   -6.6929    1.5665   -2.0803 H   0  0  0  0  0  0  0  0  0  0  0  0
   -3.4360    0.3377    0.7294 H   0  0  0  0  0  0  0  0  0  0  0  0
   -2.4898    1.7779    1.0893 H   0  0  0  0  0  0  0  0  0  0  0  0
   -1.8691    1.9602   -1.3501 H   0  0  0  0  0  0  0  0  0  0  0  0
   -2.6883    0.4512   -1.6750 H   0  0  0  0  0  0  0  0  0  0  0  0
   -0.3066    0.9234    0.1522 H   0  0  0  0  0  0  0  0  0  0  0  0
   -0.8917   -0.0492    3.2182 H   0  0  0  0  0  0  0  0  0  0  0  0
    0.6438   -0.8987    2.9467 H   0  0  0  0  0  0  0  0  0  0  0  0
    0.2364    0.5022    1.9831 H   0  0  0  0  0  0  0  0  0  0  0  0
   -2.1656   -3.0808    1.7831 H   0  0  0  0  0  0  0  0  0  0  0  0
   -0.4347   -3.3463    2.1279 H   0  0  0  0  0  0  0  0  0  0  0  0
   -1.4720   -2.4502    3.2516 H   0  0  0  0  0  0  0  0  0  0  0  0
   -2.7430   -1.7588   -1.0732 H   0  0  0  0  0  0  0  0  0  0  0  0
   -1.9360   -3.0765   -0.2630 H   0  0  0  0  0  0  0  0  0  0  0  0
   -1.4098   -3.0393   -2.6490 H   0  0  0  0  0  0  0  0  0  0  0  0
    0.0232   -2.9282   -1.6455 H   0  0  0  0  0  0  0  0  0  0  0  0
   -1.3839   -0.6611   -3.1286 H   0  0  0  0  0  0  0  0  0  0  0  0
    0.6263    2.1272   -1.8219 H   0  0  0  0  0  0  0  0  0  0  0  0
   -0.4720    1.5892   -3.1026 H   0  0  0  0  0  0  0  0  0  0  0  0
    1.2478    1.2170   -3.1965 H   0  0  0  0  0  0  0  0  0  0  0  0
    2.2430   -0.6454   -2.0189 H   0  0  0  0  0  0  0  0  0  0  0  0
    1.4363   -1.4445   -0.6460 H   0  0  0  0  0  0  0  0  0  0  0  0
    3.0379    2.0226    1.4654 H   0  0  0  0  0  0  0  0  0  0  0  0
    5.7506   -2.0800    0.7765 H   0  0  0  0  0  0  0  0  0  0  0  0
    3.7417   -1.7214   -0.5598 H   0  0  0  0  0  0  0  0  0  0  0  0
    7.3558   -1.2977    2.5781 H   0  0  0  0  0  0  0  0  0  0  0  0
    7.9461    0.4374    4.2340 H   0  0  0  0  0  0  0  0  0  0  0  0
    1.3346   -1.9716   -3.5928 H   0  0  0  0  0  0  0  0  0  0  0  0
   -0.1212   -2.1419   -4.5720 H   0  0  0  0  0  0  0  0  0  0  0  0
    0.6908   -0.5826   -4.4922 H   0  0  0  0  0  0  0  0  0  0  0  0
  1  2  1  0
  2  3  1  0
  3  4  1  0
  4  5  2  0
  4  6  1  0
  6  7  1  0
  7  8  1  0
  8  9  1  0
  9 10  2  3
 10 11  1  0
 10 12  1  0
  9 13  1  0
 13 14  1  0
 14 15  1  0
 15 16  1  0
 16 17  1  0
 16 18  1  0
 18 19  1  0
 19 20  1  0
 20 21  2  0
 21 22  1  0
 22 23  2  0
 23 24  1  0
 24 25  2  0
 23 26  1  0
 26 27  2  0
 27 28  1  0
 28 29  2  0
 28 30  1  0
 15 31  1  0
 16  8  1  0
 25 20  1  0
 30 22  1  0
  1 32  1  0
  1 33  1  0
  1 34  1  0
  2 35  1  0
  2 36  1  0
  6 37  1  0
  6 38  1  0
  7 39  1  0
  7 40  1  0
  8 41  1  0
 11 42  1  0
 11 43  1  0
 11 44  1  0
 12 45  1  0
 12 46  1  0
 12 47  1  0
 13 48  1  0
 13 49  1  0
 14 50  1  0
 14 51  1  0
 15 52  1  0
 17 53  1  0
 17 54  1  0
 17 55  1  0
 18 56  1  0
 18 57  1  0
 21 58  1  0
 24 59  1  0
 25 60  1  0
 26 61  1  0
 27 62  1  0
 31 63  1  0
 31 64  1  0
 31 65  1  0
M  END
>  <Name>  (878) 
Ethyl Galbanate

>  <PubChem ID>  (878) 
102230842

>  <CDB ID>  (878) 
CDB0878

>  <Smiles>  (878) 
CCOC(=O)CCC1C(=C(C)C)CCC(C1(C)COC2=CC3=C(C=C2)C=CC(=O)O3)C

>  <Chemical class>  (878) 
Sesquiterpenyl coumarins

>  <Natural source>  (878) 
Ferula pseudalliacea

>  <Molecular Formula>  (878) 
C26H34O5

>  <InChI-Key>  (878) 
RWKFHYUFQGFKKA-UHFFFAOYSA-N

>  <Total Molweight>  (878) 
426.551

>  <cLogP>  (878) 
5.7518

>  <cLogS>  (878) 
-5.244

>  <H-Acceptors>  (878) 
5

>  <H-Donors>  (878) 
0

>  <Rotatable Bonds>  (878) 
8

>  <Polar Surface Area>  (878) 
61.83

$$$$
CDB0879
     RDKit          3D

 62 64  0  0  0  0  0  0  0  0999 V2000
    0.5596   -2.4525   -2.3098 C   0  0  0  0  0  0  0  0  0  0  0  0
   -0.4451   -2.0643   -1.2187 C   0  0  0  0  0  0  0  0  0  0  0  0
   -1.8628   -2.4499   -1.6888 C   0  0  0  0  0  0  0  0  0  0  0  0
   -2.9991   -1.8131   -0.8872 C   0  0  0  0  0  0  0  0  0  0  0  0
   -2.5756   -1.4392    0.5152 C   0  0  0  0  0  0  0  0  0  0  0  0
   -3.1819   -1.9363    1.6257 C   0  0  0  0  0  0  0  0  0  0  0  0
   -4.3922   -2.8423    1.5795 C   0  0  0  0  0  0  0  0  0  0  0  0
   -2.7464   -1.6586    3.0464 C   0  0  0  0  0  0  0  0  0  0  0  0
   -1.3670   -0.4867    0.5563 C   0  0  0  0  0  0  0  0  0  0  0  0
   -0.3869   -0.5828   -0.7000 C   0  0  0  0  0  0  0  0  0  0  0  0
   -0.7371    0.4102   -1.8332 C   0  0  0  0  0  0  0  0  0  0  0  0
    1.0539   -0.2378   -0.1849 C   0  0  0  0  0  0  0  0  0  0  0  0
    1.9663   -0.0624   -1.2707 O   0  0  0  0  0  0  0  0  0  0  0  0
    3.2657    0.2274   -0.9610 C   0  0  0  0  0  0  0  0  0  0  0  0
    3.7904    0.3800    0.3203 C   0  0  0  0  0  0  0  0  0  0  0  0
    5.1468    0.6750    0.4671 C   0  0  0  0  0  0  0  0  0  0  0  0
    5.9943    0.8231   -0.6287 C   0  0  0  0  0  0  0  0  0  0  0  0
    5.4662    0.6705   -1.9091 C   0  0  0  0  0  0  0  0  0  0  0  0
    4.1081    0.3740   -2.0697 C   0  0  0  0  0  0  0  0  0  0  0  0
    7.3961    1.1310   -0.4010 C   0  0  0  0  0  0  0  0  0  0  0  0
    7.8449    1.2642    0.8508 C   0  0  0  0  0  0  0  0  0  0  0  0
    6.9695    1.1103    2.0262 C   0  0  0  0  0  0  0  0  0  0  0  0
    7.4176    1.2369    3.1599 O   0  0  0  0  0  0  0  0  0  0  0  0
    5.6344    0.8187    1.7825 O   0  0  0  0  0  0  0  0  0  0  0  0
   -1.7636    0.9570    0.9744 C   0  0  0  0  0  0  0  0  0  0  0  0
   -3.0402    1.5250    0.3447 C   0  0  0  0  0  0  0  0  0  0  0  0
   -3.2826    2.9537    0.7758 C   0  0  0  0  0  0  0  0  0  0  0  0
   -2.5719    3.5985    1.5335 O   0  0  0  0  0  0  0  0  0  0  0  0
   -4.4214    3.4176    0.1856 O   0  0  0  0  0  0  0  0  0  0  0  0
   -4.7446    4.7656    0.5287 C   0  0  0  0  0  0  0  0  0  0  0  0
    1.5879   -2.4111   -1.9411 H   0  0  0  0  0  0  0  0  0  0  0  0
    0.3891   -3.4856   -2.6343 H   0  0  0  0  0  0  0  0  0  0  0  0
    0.4768   -1.8150   -3.1942 H   0  0  0  0  0  0  0  0  0  0  0  0
   -0.2099   -2.7118   -0.3601 H   0  0  0  0  0  0  0  0  0  0  0  0
   -1.9571   -3.5430   -1.6339 H   0  0  0  0  0  0  0  0  0  0  0  0
   -2.0016   -2.1930   -2.7471 H   0  0  0  0  0  0  0  0  0  0  0  0
   -3.3592   -0.9111   -1.3940 H   0  0  0  0  0  0  0  0  0  0  0  0
   -3.8462   -2.5032   -0.9187 H   0  0  0  0  0  0  0  0  0  0  0  0
   -4.9970   -2.7286    2.4866 H   0  0  0  0  0  0  0  0  0  0  0  0
   -5.0638   -2.6092    0.7493 H   0  0  0  0  0  0  0  0  0  0  0  0
   -4.0786   -3.8886    1.5121 H   0  0  0  0  0  0  0  0  0  0  0  0
   -1.8172   -1.0946    3.1329 H   0  0  0  0  0  0  0  0  0  0  0  0
   -2.5909   -2.6037    3.5785 H   0  0  0  0  0  0  0  0  0  0  0  0
   -3.5230   -1.0918    3.5710 H   0  0  0  0  0  0  0  0  0  0  0  0
   -0.7412   -0.8611    1.3794 H   0  0  0  0  0  0  0  0  0  0  0  0
   -0.6275    1.4482   -1.5021 H   0  0  0  0  0  0  0  0  0  0  0  0
   -0.0752    0.2932   -2.6973 H   0  0  0  0  0  0  0  0  0  0  0  0
   -1.7545    0.2872   -2.2077 H   0  0  0  0  0  0  0  0  0  0  0  0
    1.0231    0.6937    0.3919 H   0  0  0  0  0  0  0  0  0  0  0  0
    1.4062   -1.0476    0.4673 H   0  0  0  0  0  0  0  0  0  0  0  0
    3.1832    0.2787    1.2123 H   0  0  0  0  0  0  0  0  0  0  0  0
    6.0934    0.7781   -2.7903 H   0  0  0  0  0  0  0  0  0  0  0  0
    3.6994    0.2550   -3.0711 H   0  0  0  0  0  0  0  0  0  0  0  0
    8.0585    1.2485   -1.2514 H   0  0  0  0  0  0  0  0  0  0  0  0
    8.8818    1.4932    1.0643 H   0  0  0  0  0  0  0  0  0  0  0  0
   -1.9027    0.9734    2.0640 H   0  0  0  0  0  0  0  0  0  0  0  0
   -0.9281    1.6435    0.7964 H   0  0  0  0  0  0  0  0  0  0  0  0
   -3.9112    0.9392    0.6568 H   0  0  0  0  0  0  0  0  0  0  0  0
   -2.9757    1.5172   -0.7454 H   0  0  0  0  0  0  0  0  0  0  0  0
   -4.9157    4.8566    1.6059 H   0  0  0  0  0  0  0  0  0  0  0  0
   -3.9511    5.4451    0.2024 H   0  0  0  0  0  0  0  0  0  0  0  0
   -5.6674    5.0357    0.0078 H   0  0  0  0  0  0  0  0  0  0  0  0
  1  2  1  0
  2  3  1  0
  3  4  1  0
  4  5  1  0
  5  6  2  3
  6  7  1  0
  6  8  1  0
  5  9  1  0
  9 10  1  0
 10 11  1  0
 10 12  1  0
 12 13  1  0
 13 14  1  0
 14 15  2  0
 15 16  1  0
 16 17  2  0
 17 18  1  0
 18 19  2  0
 17 20  1  0
 20 21  2  0
 21 22  1  0
 22 23  2  0
 22 24  1  0
  9 25  1  0
 25 26  1  0
 26 27  1  0
 27 28  2  0
 27 29  1  0
 29 30  1  0
 10  2  1  0
 19 14  1  0
 24 16  1  0
  1 31  1  0
  1 32  1  0
  1 33  1  0
  2 34  1  0
  3 35  1  0
  3 36  1  0
  4 37  1  0
  4 38  1  0
  7 39  1  0
  7 40  1  0
  7 41  1  0
  8 42  1  0
  8 43  1  0
  8 44  1  0
  9 45  1  0
 11 46  1  0
 11 47  1  0
 11 48  1  0
 12 49  1  0
 12 50  1  0
 15 51  1  0
 18 52  1  0
 19 53  1  0
 20 54  1  0
 21 55  1  0
 25 56  1  0
 25 57  1  0
 26 58  1  0
 26 59  1  0
 30 60  1  0
 30 61  1  0
 30 62  1  0
M  END
>  <Name>  (879) 
Methyl Galbanate

>  <PubChem ID>  (879) 
7075765

>  <CDB ID>  (879) 
CDB0879

>  <Smiles>  (879) 
CC1CCC(=C(C)C)C(C1(C)COC2=CC3=C(C=C2)C=CC(=O)O3)CCC(=O)OC

>  <Chemical class>  (879) 
Sesquiterpenyl coumarins

>  <Natural source>  (879) 
Ferula pseudalliacea

>  <Molecular Formula>  (879) 
C25H32O5

>  <InChI-Key>  (879) 
LWKZASDDSMSRFV-UHFFFAOYSA-N

>  <Total Molweight>  (879) 
412.524

>  <cLogP>  (879) 
5.3455

>  <cLogS>  (879) 
-4.944

>  <H-Acceptors>  (879) 
5

>  <H-Donors>  (879) 
0

>  <Rotatable Bonds>  (879) 
7

>  <Polar Surface Area>  (879) 
61.83

$$$$
CDB0880
     RDKit          3D

 58 61  0  0  0  0  0  0  0  0999 V2000
   -0.0474   -1.2417   -2.5428 C   0  0  0  0  0  0  0  0  0  0  0  0
   -0.1853    0.1947   -2.1161 C   0  0  0  0  0  0  0  0  0  0  0  0
    0.8122    0.9414   -1.5983 C   0  0  0  0  0  0  0  0  0  0  0  0
    2.2182    0.5315   -1.2704 C   0  0  0  0  0  0  0  0  0  0  0  0
    2.4725    0.9539    0.0712 O   0  0  0  0  0  0  0  0  0  0  0  0
    3.7099    0.6846    0.5868 C   0  0  0  0  0  0  0  0  0  0  0  0
    4.7712    0.0901   -0.0924 C   0  0  0  0  0  0  0  0  0  0  0  0
    5.9772   -0.1151    0.5803 C   0  0  0  0  0  0  0  0  0  0  0  0
    6.1546    0.2565    1.9112 C   0  0  0  0  0  0  0  0  0  0  0  0
    5.0919    0.8523    2.5873 C   0  0  0  0  0  0  0  0  0  0  0  0
    3.8777    1.0641    1.9243 C   0  0  0  0  0  0  0  0  0  0  0  0
    7.4376    0.0113    2.5480 C   0  0  0  0  0  0  0  0  0  0  0  0
    8.4202   -0.5631    1.8474 C   0  0  0  0  0  0  0  0  0  0  0  0
    8.2581   -0.9638    0.4386 C   0  0  0  0  0  0  0  0  0  0  0  0
    9.1823   -1.4870   -0.1731 O   0  0  0  0  0  0  0  0  0  0  0  0
    7.0233   -0.7199   -0.1469 O   0  0  0  0  0  0  0  0  0  0  0  0
   -1.5563    0.8102   -2.3402 C   0  0  0  0  0  0  0  0  0  0  0  0
   -2.3239    1.1358   -1.0479 C   0  0  0  0  0  0  0  0  0  0  0  0
   -2.8001   -0.0983   -0.2663 C   0  0  0  0  0  0  0  0  0  0  0  0
   -4.0956   -0.8390   -0.7485 C   0  0  0  0  0  0  0  0  0  0  0  0
   -4.9134   -0.8975    0.5707 C   0  0  0  0  0  0  0  0  0  0  0  0
   -5.4998    0.4487    0.9913 C   0  0  0  0  0  0  0  0  0  0  0  0
   -4.2518    1.2328    1.3896 C   0  0  0  0  0  0  0  0  0  0  0  0
   -3.1457    0.1836    1.2197 C   0  0  0  0  0  0  0  0  0  0  0  0
   -3.8612   -1.0327    1.5594 O   0  0  0  0  0  0  0  0  0  0  0  0
   -1.9494    0.3883    2.1276 C   0  0  0  0  0  0  0  0  0  0  0  0
   -4.8848   -0.2004   -1.8964 C   0  0  0  0  0  0  0  0  0  0  0  0
   -3.7339   -2.2792   -1.1722 C   0  0  0  0  0  0  0  0  0  0  0  0
   -0.6273   -1.8941   -1.8841 H   0  0  0  0  0  0  0  0  0  0  0  0
    0.9852   -1.5973   -2.5388 H   0  0  0  0  0  0  0  0  0  0  0  0
   -0.4165   -1.3678   -3.5664 H   0  0  0  0  0  0  0  0  0  0  0  0
    0.6025    1.9836   -1.3580 H   0  0  0  0  0  0  0  0  0  0  0  0
    2.8968    1.0472   -1.9598 H   0  0  0  0  0  0  0  0  0  0  0  0
    2.3577   -0.5502   -1.3444 H   0  0  0  0  0  0  0  0  0  0  0  0
    4.6983   -0.2199   -1.1283 H   0  0  0  0  0  0  0  0  0  0  0  0
    5.1888    1.1567    3.6262 H   0  0  0  0  0  0  0  0  0  0  0  0
    3.0499    1.5285    2.4564 H   0  0  0  0  0  0  0  0  0  0  0  0
    7.5791    0.2980    3.5842 H   0  0  0  0  0  0  0  0  0  0  0  0
    9.3909   -0.7635    2.2841 H   0  0  0  0  0  0  0  0  0  0  0  0
   -1.4238    1.7419   -2.9069 H   0  0  0  0  0  0  0  0  0  0  0  0
   -2.1564    0.1620   -2.9868 H   0  0  0  0  0  0  0  0  0  0  0  0
   -1.6786    1.7459   -0.4044 H   0  0  0  0  0  0  0  0  0  0  0  0
   -3.1688    1.7835   -1.3024 H   0  0  0  0  0  0  0  0  0  0  0  0
   -1.9767   -0.8244   -0.2524 H   0  0  0  0  0  0  0  0  0  0  0  0
   -5.6264   -1.7244    0.6306 H   0  0  0  0  0  0  0  0  0  0  0  0
   -6.1339    0.3172    1.8767 H   0  0  0  0  0  0  0  0  0  0  0  0
   -6.1034    0.9437    0.2281 H   0  0  0  0  0  0  0  0  0  0  0  0
   -4.1007    2.1306    0.7851 H   0  0  0  0  0  0  0  0  0  0  0  0
   -4.3459    1.5504    2.4348 H   0  0  0  0  0  0  0  0  0  0  0  0
   -1.2382   -0.4391    2.0289 H   0  0  0  0  0  0  0  0  0  0  0  0
   -2.2579    0.4021    3.1788 H   0  0  0  0  0  0  0  0  0  0  0  0
   -1.4282    1.3243    1.9077 H   0  0  0  0  0  0  0  0  0  0  0  0
   -4.3444   -0.2722   -2.8451 H   0  0  0  0  0  0  0  0  0  0  0  0
   -5.1048    0.8565   -1.7258 H   0  0  0  0  0  0  0  0  0  0  0  0
   -5.8444   -0.7126   -2.0340 H   0  0  0  0  0  0  0  0  0  0  0  0
   -4.6351   -2.8557   -1.4103 H   0  0  0  0  0  0  0  0  0  0  0  0
   -3.2014   -2.8170   -0.3798 H   0  0  0  0  0  0  0  0  0  0  0  0
   -3.0949   -2.2763   -2.0617 H   0  0  0  0  0  0  0  0  0  0  0  0
  1  2  1  0
  2  3  2  3
  3  4  1  0
  4  5  1  0
  5  6  1  0
  6  7  2  0
  7  8  1  0
  8  9  2  0
  9 10  1  0
 10 11  2  0
  9 12  1  0
 12 13  2  0
 13 14  1  0
 14 15  2  0
 14 16  1  0
  2 17  1  0
 17 18  1  0
 18 19  1  0
 19 20  1  0
 20 21  1  0
 21 22  1  0
 22 23  1  0
 23 24  1  0
 24 25  1  0
 24 26  1  0
 20 27  1  0
 20 28  1  0
 11  6  1  0
 16  8  1  0
 24 19  1  0
 25 21  1  0
  1 29  1  0
  1 30  1  0
  1 31  1  0
  3 32  1  0
  4 33  1  0
  4 34  1  0
  7 35  1  0
 10 36  1  0
 11 37  1  0
 12 38  1  0
 13 39  1  0
 17 40  1  0
 17 41  1  0
 18 42  1  0
 18 43  1  0
 19 44  1  0
 21 45  1  0
 22 46  1  0
 22 47  1  0
 23 48  1  0
 23 49  1  0
 26 50  1  0
 26 51  1  0
 26 52  1  0
 27 53  1  0
 27 54  1  0
 27 55  1  0
 28 56  1  0
 28 57  1  0
 28 58  1  0
M  END
>  <Name>  (880) 
Farnesiferol

>  <PubChem ID>  (880) 
44457256

>  <CDB ID>  (880) 
CDB0880

>  <Smiles>  (880) 
CC(=CCOC1=CC2=C(C=C1)C=CC(=O)O2)CCC3C(C4CCC3(O4)C)(C)C

>  <Chemical class>  (880) 
Sesquiterpenyl coumarins

>  <Natural source>  (880) 
Ferula pseudalliacea

>  <Molecular Formula>  (880) 
C24H30O4

>  <InChI-Key>  (880) 
OCHZHKVSLMBEJP-UHFFFAOYSA-N

>  <Total Molweight>  (880) 
382.498

>  <cLogP>  (880) 
5.0986

>  <cLogS>  (880) 
-5.119

>  <H-Acceptors>  (880) 
4

>  <H-Donors>  (880) 
0

>  <Rotatable Bonds>  (880) 
6

>  <Polar Surface Area>  (880) 
44.76

$$$$
CDB0881
     RDKit          3D

 58 61  0  0  0  0  0  0  0  0999 V2000
   -3.7616   -0.1079   -2.9497 C   0  0  0  0  0  0  0  0  0  0  0  0
   -3.4466   -0.7004   -1.5471 C   0  0  0  0  0  0  0  0  0  0  0  0
   -1.9279   -0.4886   -1.1598 C   0  0  0  0  0  0  0  0  0  0  0  0
   -1.3914    0.9399   -1.4516 C   0  0  0  0  0  0  0  0  0  0  0  0
   -1.4821    1.9365   -0.3047 C   0  0  0  0  0  0  0  0  0  0  0  0
   -0.9914    1.3890    1.0041 C   0  0  0  0  0  0  0  0  0  0  0  0
   -1.0182    2.1514    2.1111 C   0  0  0  0  0  0  0  0  0  0  0  0
   -0.5137   -0.0557    1.0339 C   0  0  0  0  0  0  0  0  0  0  0  0
   -1.5531   -0.9978    0.2952 C   0  0  0  0  0  0  0  0  0  0  0  0
   -2.8164   -1.1536    1.2064 C   0  0  0  0  0  0  0  0  0  0  0  0
   -3.9537   -0.1730    0.9563 C   0  0  0  0  0  0  0  0  0  0  0  0
   -4.3753   -0.0220   -0.5069 C   0  0  0  0  0  0  0  0  0  0  0  0
   -5.7179   -0.4994   -0.6286 O   0  0  0  0  0  0  0  0  0  0  0  0
   -0.9306   -2.4185    0.1858 C   0  0  0  0  0  0  0  0  0  0  0  0
    0.9650   -0.1773    0.5689 C   0  0  0  0  0  0  0  0  0  0  0  0
    1.7948    0.6342    1.4130 O   0  0  0  0  0  0  0  0  0  0  0  0
    3.1281    0.6890    1.1179 C   0  0  0  0  0  0  0  0  0  0  0  0
    3.7792   -0.0365    0.1230 C   0  0  0  0  0  0  0  0  0  0  0  0
    5.1540    0.1323   -0.0501 C   0  0  0  0  0  0  0  0  0  0  0  0
    5.8979    1.0032    0.7430 C   0  0  0  0  0  0  0  0  0  0  0  0
    5.2441    1.7255    1.7393 C   0  0  0  0  0  0  0  0  0  0  0  0
    3.8661    1.5653    1.9227 C   0  0  0  0  0  0  0  0  0  0  0  0
    7.3263    1.1285    0.5064 C   0  0  0  0  0  0  0  0  0  0  0  0
    7.8974    0.4087   -0.4641 C   0  0  0  0  0  0  0  0  0  0  0  0
    7.1326   -0.5187   -1.3164 C   0  0  0  0  0  0  0  0  0  0  0  0
    7.6902   -1.1621   -2.1980 O   0  0  0  0  0  0  0  0  0  0  0  0
    5.7703   -0.6215   -1.0702 O   0  0  0  0  0  0  0  0  0  0  0  0
   -3.7680   -2.2129   -1.6979 C   0  0  0  0  0  0  0  0  0  0  0  0
   -3.0164   -0.4277   -3.6869 H   0  0  0  0  0  0  0  0  0  0  0  0
   -4.7422   -0.4332   -3.3165 H   0  0  0  0  0  0  0  0  0  0  0  0
   -3.7920    0.9861   -2.9417 H   0  0  0  0  0  0  0  0  0  0  0  0
   -1.3683   -1.1127   -1.8736 H   0  0  0  0  0  0  0  0  0  0  0  0
   -0.3392    0.8508   -1.7467 H   0  0  0  0  0  0  0  0  0  0  0  0
   -1.8513    1.3850   -2.3366 H   0  0  0  0  0  0  0  0  0  0  0  0
   -2.5189    2.2727   -0.1972 H   0  0  0  0  0  0  0  0  0  0  0  0
   -0.8911    2.8223   -0.5703 H   0  0  0  0  0  0  0  0  0  0  0  0
   -1.3730    3.1772    2.0852 H   0  0  0  0  0  0  0  0  0  0  0  0
   -0.6739    1.7733    3.0693 H   0  0  0  0  0  0  0  0  0  0  0  0
   -0.4892   -0.3677    2.0896 H   0  0  0  0  0  0  0  0  0  0  0  0
   -3.2285   -2.1653    1.1216 H   0  0  0  0  0  0  0  0  0  0  0  0
   -2.5299   -1.0863    2.2644 H   0  0  0  0  0  0  0  0  0  0  0  0
   -3.6611    0.8097    1.3404 H   0  0  0  0  0  0  0  0  0  0  0  0
   -4.8115   -0.4706    1.5733 H   0  0  0  0  0  0  0  0  0  0  0  0
   -4.4306    1.0542   -0.7118 H   0  0  0  0  0  0  0  0  0  0  0  0
   -6.0496   -0.2366   -1.5033 H   0  0  0  0  0  0  0  0  0  0  0  0
   -0.5826   -2.7703    1.1640 H   0  0  0  0  0  0  0  0  0  0  0  0
   -0.0822   -2.4388   -0.5064 H   0  0  0  0  0  0  0  0  0  0  0  0
   -1.6469   -3.1569   -0.1851 H   0  0  0  0  0  0  0  0  0  0  0  0
    1.2997   -1.2135    0.6828 H   0  0  0  0  0  0  0  0  0  0  0  0
    1.0872    0.1274   -0.4725 H   0  0  0  0  0  0  0  0  0  0  0  0
    3.2577   -0.7328   -0.5231 H   0  0  0  0  0  0  0  0  0  0  0  0
    5.7876    2.4149    2.3801 H   0  0  0  0  0  0  0  0  0  0  0  0
    3.3581    2.1314    2.7009 H   0  0  0  0  0  0  0  0  0  0  0  0
    7.9086    1.8051    1.1219 H   0  0  0  0  0  0  0  0  0  0  0  0
    8.9583    0.4724   -0.6732 H   0  0  0  0  0  0  0  0  0  0  0  0
   -3.7874   -2.7520   -0.7518 H   0  0  0  0  0  0  0  0  0  0  0  0
   -4.7534   -2.3720   -2.1524 H   0  0  0  0  0  0  0  0  0  0  0  0
   -3.0360   -2.7038   -2.3495 H   0  0  0  0  0  0  0  0  0  0  0  0
  1  2  1  0
  2  3  1  0
  3  4  1  0
  4  5  1  0
  5  6  1  0
  6  7  2  0
  6  8  1  0
  8  9  1  0
  9 10  1  0
 10 11  1  0
 11 12  1  0
 12 13  1  0
  9 14  1  0
  8 15  1  0
 15 16  1  0
 16 17  1  0
 17 18  2  0
 18 19  1  0
 19 20  2  0
 20 21  1  0
 21 22  2  0
 20 23  1  0
 23 24  2  0
 24 25  1  0
 25 26  2  0
 25 27  1  0
  2 28  1  0
 12  2  1  0
  9  3  1  0
 22 17  1  0
 27 19  1  0
  1 29  1  0
  1 30  1  0
  1 31  1  0
  3 32  1  0
  4 33  1  0
  4 34  1  0
  5 35  1  0
  5 36  1  0
  7 37  1  0
  7 38  1  0
  8 39  1  0
 10 40  1  0
 10 41  1  0
 11 42  1  0
 11 43  1  0
 12 44  1  0
 13 45  1  0
 14 46  1  0
 14 47  1  0
 14 48  1  0
 15 49  1  0
 15 50  1  0
 18 51  1  0
 21 52  1  0
 22 53  1  0
 23 54  1  0
 24 55  1  0
 28 56  1  0
 28 57  1  0
 28 58  1  0
M  END
>  <Name>  (881) 
Farnesiferol A

>  <PubChem ID>  (881) 
7067262

>  <CDB ID>  (881) 
CDB0881

>  <Smiles>  (881) 
CC1(C2CCC(=C)C(C2(CCC1O)C)COC3=CC4=C(C=C3)C=CC(=O)O4)C

>  <Chemical class>  (881) 
Sesquiterpenyl coumarins

>  <Natural source>  (881) 
Ferula pseudalliacea

>  <Molecular Formula>  (881) 
C24H30O4

>  <InChI-Key>  (881) 
FCWYNTDTQPCVPG-UHFFFAOYSA-N

>  <Total Molweight>  (881) 
382.498

>  <cLogP>  (881) 
4.4305

>  <cLogS>  (881) 
-5.138

>  <H-Acceptors>  (881) 
4

>  <H-Donors>  (881) 
1

>  <Rotatable Bonds>  (881) 
3

>  <Polar Surface Area>  (881) 
55.76

$$$$
CDB0882
     RDKit          3D

 58 60  0  0  0  0  0  0  0  0999 V2000
    0.2220   -1.6862   -2.6351 C   0  0  0  0  0  0  0  0  0  0  0  0
   -0.0423   -1.1007   -1.2690 C   0  0  0  0  0  0  0  0  0  0  0  0
    0.9278   -0.7953   -0.3814 C   0  0  0  0  0  0  0  0  0  0  0  0
    2.4169   -0.9359   -0.5268 C   0  0  0  0  0  0  0  0  0  0  0  0
    2.9961    0.3135   -0.1429 O   0  0  0  0  0  0  0  0  0  0  0  0
    4.3607    0.4005   -0.1576 C   0  0  0  0  0  0  0  0  0  0  0  0
    5.2455   -0.6183   -0.5046 C   0  0  0  0  0  0  0  0  0  0  0  0
    6.6181   -0.3665   -0.4676 C   0  0  0  0  0  0  0  0  0  0  0  0
    7.1334    0.8726   -0.0937 C   0  0  0  0  0  0  0  0  0  0  0  0
    6.2460    1.8895    0.2532 C   0  0  0  0  0  0  0  0  0  0  0  0
    4.8676    1.6501    0.2200 C   0  0  0  0  0  0  0  0  0  0  0  0
    8.5739    1.0631   -0.0778 C   0  0  0  0  0  0  0  0  0  0  0  0
    9.3748    0.0498   -0.4215 C   0  0  0  0  0  0  0  0  0  0  0  0
    8.8547   -1.2696   -0.8213 C   0  0  0  0  0  0  0  0  0  0  0  0
    9.6197   -2.1757   -1.1311 O   0  0  0  0  0  0  0  0  0  0  0  0
    7.4754   -1.4268   -0.8277 O   0  0  0  0  0  0  0  0  0  0  0  0
   -1.5309   -0.8822   -1.0069 C   0  0  0  0  0  0  0  0  0  0  0  0
   -1.9464   -0.4230    0.3981 C   0  0  0  0  0  0  0  0  0  0  0  0
   -3.4753   -0.4548    0.6941 C   0  0  0  0  0  0  0  0  0  0  0  0
   -3.7778   -0.3268    2.1890 C   0  0  0  0  0  0  0  0  0  0  0  0
   -2.9361    0.1378    3.1287 C   0  0  0  0  0  0  0  0  0  0  0  0
   -5.1886   -0.7216    2.5708 C   0  0  0  0  0  0  0  0  0  0  0  0
   -6.1959   -0.4211    1.4575 C   0  0  0  0  0  0  0  0  0  0  0  0
   -5.7747    0.7911    0.6251 C   0  0  0  0  0  0  0  0  0  0  0  0
   -4.4011    0.5478   -0.1179 C   0  0  0  0  0  0  0  0  0  0  0  0
   -4.7639   -0.0839   -1.4872 C   0  0  0  0  0  0  0  0  0  0  0  0
   -3.7035    1.8966   -0.3845 C   0  0  0  0  0  0  0  0  0  0  0  0
   -5.7472    1.9203    1.5018 O   0  0  0  0  0  0  0  0  0  0  0  0
   -0.0936   -0.9818   -3.4119 H   0  0  0  0  0  0  0  0  0  0  0  0
    1.2699   -1.9314   -2.8157 H   0  0  0  0  0  0  0  0  0  0  0  0
   -0.3452   -2.6149   -2.7616 H   0  0  0  0  0  0  0  0  0  0  0  0
    0.6503   -0.3768    0.5839 H   0  0  0  0  0  0  0  0  0  0  0  0
    2.7529   -1.7278    0.1529 H   0  0  0  0  0  0  0  0  0  0  0  0
    2.7127   -1.1719   -1.5515 H   0  0  0  0  0  0  0  0  0  0  0  0
    4.9090   -1.6042   -0.8038 H   0  0  0  0  0  0  0  0  0  0  0  0
    6.6068    2.8707    0.5507 H   0  0  0  0  0  0  0  0  0  0  0  0
    4.1780    2.4471    0.4912 H   0  0  0  0  0  0  0  0  0  0  0  0
    8.9786    2.0261    0.2132 H   0  0  0  0  0  0  0  0  0  0  0  0
   10.4534    0.1499   -0.4229 H   0  0  0  0  0  0  0  0  0  0  0  0
   -2.0533   -1.8217   -1.2273 H   0  0  0  0  0  0  0  0  0  0  0  0
   -1.8607   -0.1403   -1.7394 H   0  0  0  0  0  0  0  0  0  0  0  0
   -1.4616   -1.1003    1.1152 H   0  0  0  0  0  0  0  0  0  0  0  0
   -1.5422    0.5787    0.5882 H   0  0  0  0  0  0  0  0  0  0  0  0
   -3.7892   -1.4779    0.4343 H   0  0  0  0  0  0  0  0  0  0  0  0
   -3.2456    0.2179    4.1672 H   0  0  0  0  0  0  0  0  0  0  0  0
   -1.9284    0.4687    2.9057 H   0  0  0  0  0  0  0  0  0  0  0  0
   -5.4969   -0.1895    3.4799 H   0  0  0  0  0  0  0  0  0  0  0  0
   -5.2207   -1.7927    2.8031 H   0  0  0  0  0  0  0  0  0  0  0  0
   -6.3064   -1.2993    0.8101 H   0  0  0  0  0  0  0  0  0  0  0  0
   -7.1765   -0.2429    1.9158 H   0  0  0  0  0  0  0  0  0  0  0  0
   -6.5669    0.9999   -0.1044 H   0  0  0  0  0  0  0  0  0  0  0  0
   -5.4540    0.5609   -2.0447 H   0  0  0  0  0  0  0  0  0  0  0  0
   -3.8963   -0.2316   -2.1305 H   0  0  0  0  0  0  0  0  0  0  0  0
   -5.2523   -1.0564   -1.3623 H   0  0  0  0  0  0  0  0  0  0  0  0
   -2.8391    1.7898   -1.0463 H   0  0  0  0  0  0  0  0  0  0  0  0
   -4.3857    2.6002   -0.8756 H   0  0  0  0  0  0  0  0  0  0  0  0
   -3.3538    2.3582    0.5451 H   0  0  0  0  0  0  0  0  0  0  0  0
   -5.6920    2.7228    0.9575 H   0  0  0  0  0  0  0  0  0  0  0  0
  1  2  1  0
  2  3  2  3
  3  4  1  0
  4  5  1  0
  5  6  1  0
  6  7  2  0
  7  8  1  0
  8  9  2  0
  9 10  1  0
 10 11  2  0
  9 12  1  0
 12 13  2  0
 13 14  1  0
 14 15  2  0
 14 16  1  0
  2 17  1  0
 17 18  1  0
 18 19  1  0
 19 20  1  0
 20 21  2  0
 20 22  1  0
 22 23  1  0
 23 24  1  0
 24 25  1  0
 25 26  1  0
 25 27  1  0
 24 28  1  0
 11  6  1  0
 16  8  1  0
 25 19  1  0
  1 29  1  0
  1 30  1  0
  1 31  1  0
  3 32  1  0
  4 33  1  0
  4 34  1  0
  7 35  1  0
 10 36  1  0
 11 37  1  0
 12 38  1  0
 13 39  1  0
 17 40  1  0
 17 41  1  0
 18 42  1  0
 18 43  1  0
 19 44  1  0
 21 45  1  0
 21 46  1  0
 22 47  1  0
 22 48  1  0
 23 49  1  0
 23 50  1  0
 24 51  1  0
 26 52  1  0
 26 53  1  0
 26 54  1  0
 27 55  1  0
 27 56  1  0
 27 57  1  0
 28 58  1  0
M  END
>  <Name>  (882) 
Farnesiferol B

>  <PubChem ID>  (882) 
1779468

>  <CDB ID>  (882) 
CDB0882

>  <Smiles>  (882) 
CC(=CCOC1=CC2=C(C=C1)C=CC(=O)O2)CCC3C(=C)CCC(C3(C)C)O

>  <Chemical class>  (882) 
Sesquiterpenyl coumarins

>  <Natural source>  (882) 
Ferula pseudalliacea

>  <Molecular Formula>  (882) 
C24H30O4

>  <InChI-Key>  (882) 
XXKXCRGLMFAXTK-UHFFFAOYSA-N

>  <Total Molweight>  (882) 
382.498

>  <cLogP>  (882) 
5.3414

>  <cLogS>  (882) 
-4.991

>  <H-Acceptors>  (882) 
4

>  <H-Donors>  (882) 
1

>  <Rotatable Bonds>  (882) 
6

>  <Polar Surface Area>  (882) 
55.76

$$$$
CDB0883
     RDKit          3D

 58 61  0  0  0  0  0  0  0  0999 V2000
   -0.0474   -1.2417   -2.5428 C   0  0  0  0  0  0  0  0  0  0  0  0
   -0.1853    0.1947   -2.1161 C   0  0  0  0  0  0  0  0  0  0  0  0
    0.8122    0.9414   -1.5983 C   0  0  0  0  0  0  0  0  0  0  0  0
    2.2182    0.5315   -1.2704 C   0  0  0  0  0  0  0  0  0  0  0  0
    2.4725    0.9539    0.0712 O   0  0  0  0  0  0  0  0  0  0  0  0
    3.7099    0.6846    0.5868 C   0  0  0  0  0  0  0  0  0  0  0  0
    4.7712    0.0901   -0.0924 C   0  0  0  0  0  0  0  0  0  0  0  0
    5.9772   -0.1151    0.5803 C   0  0  0  0  0  0  0  0  0  0  0  0
    6.1546    0.2565    1.9112 C   0  0  0  0  0  0  0  0  0  0  0  0
    5.0919    0.8523    2.5873 C   0  0  0  0  0  0  0  0  0  0  0  0
    3.8777    1.0641    1.9243 C   0  0  0  0  0  0  0  0  0  0  0  0
    7.4376    0.0113    2.5480 C   0  0  0  0  0  0  0  0  0  0  0  0
    8.4202   -0.5631    1.8474 C   0  0  0  0  0  0  0  0  0  0  0  0
    8.2581   -0.9638    0.4386 C   0  0  0  0  0  0  0  0  0  0  0  0
    9.1823   -1.4870   -0.1731 O   0  0  0  0  0  0  0  0  0  0  0  0
    7.0233   -0.7199   -0.1469 O   0  0  0  0  0  0  0  0  0  0  0  0
   -1.5563    0.8102   -2.3402 C   0  0  0  0  0  0  0  0  0  0  0  0
   -2.3239    1.1358   -1.0479 C   0  0  0  0  0  0  0  0  0  0  0  0
   -2.8001   -0.0983   -0.2663 C   0  0  0  0  0  0  0  0  0  0  0  0
   -4.0956   -0.8390   -0.7485 C   0  0  0  0  0  0  0  0  0  0  0  0
   -4.9134   -0.8975    0.5707 C   0  0  0  0  0  0  0  0  0  0  0  0
   -5.4998    0.4487    0.9913 C   0  0  0  0  0  0  0  0  0  0  0  0
   -4.2518    1.2328    1.3896 C   0  0  0  0  0  0  0  0  0  0  0  0
   -3.1457    0.1836    1.2197 C   0  0  0  0  0  0  0  0  0  0  0  0
   -3.8612   -1.0327    1.5594 O   0  0  0  0  0  0  0  0  0  0  0  0
   -1.9494    0.3883    2.1276 C   0  0  0  0  0  0  0  0  0  0  0  0
   -4.8848   -0.2004   -1.8964 C   0  0  0  0  0  0  0  0  0  0  0  0
   -3.7339   -2.2792   -1.1722 C   0  0  0  0  0  0  0  0  0  0  0  0
   -0.6273   -1.8941   -1.8841 H   0  0  0  0  0  0  0  0  0  0  0  0
    0.9852   -1.5973   -2.5388 H   0  0  0  0  0  0  0  0  0  0  0  0
   -0.4165   -1.3678   -3.5664 H   0  0  0  0  0  0  0  0  0  0  0  0
    0.6025    1.9836   -1.3580 H   0  0  0  0  0  0  0  0  0  0  0  0
    2.8968    1.0472   -1.9598 H   0  0  0  0  0  0  0  0  0  0  0  0
    2.3577   -0.5502   -1.3444 H   0  0  0  0  0  0  0  0  0  0  0  0
    4.6983   -0.2199   -1.1283 H   0  0  0  0  0  0  0  0  0  0  0  0
    5.1888    1.1567    3.6262 H   0  0  0  0  0  0  0  0  0  0  0  0
    3.0499    1.5285    2.4564 H   0  0  0  0  0  0  0  0  0  0  0  0
    7.5791    0.2980    3.5842 H   0  0  0  0  0  0  0  0  0  0  0  0
    9.3909   -0.7635    2.2841 H   0  0  0  0  0  0  0  0  0  0  0  0
   -1.4238    1.7419   -2.9069 H   0  0  0  0  0  0  0  0  0  0  0  0
   -2.1564    0.1620   -2.9868 H   0  0  0  0  0  0  0  0  0  0  0  0
   -1.6786    1.7459   -0.4044 H   0  0  0  0  0  0  0  0  0  0  0  0
   -3.1688    1.7835   -1.3024 H   0  0  0  0  0  0  0  0  0  0  0  0
   -1.9767   -0.8244   -0.2524 H   0  0  0  0  0  0  0  0  0  0  0  0
   -5.6264   -1.7244    0.6306 H   0  0  0  0  0  0  0  0  0  0  0  0
   -6.1339    0.3172    1.8767 H   0  0  0  0  0  0  0  0  0  0  0  0
   -6.1034    0.9437    0.2281 H   0  0  0  0  0  0  0  0  0  0  0  0
   -4.1007    2.1306    0.7851 H   0  0  0  0  0  0  0  0  0  0  0  0
   -4.3459    1.5504    2.4348 H   0  0  0  0  0  0  0  0  0  0  0  0
   -1.2382   -0.4391    2.0289 H   0  0  0  0  0  0  0  0  0  0  0  0
   -2.2579    0.4021    3.1788 H   0  0  0  0  0  0  0  0  0  0  0  0
   -1.4282    1.3243    1.9077 H   0  0  0  0  0  0  0  0  0  0  0  0
   -4.3444   -0.2722   -2.8451 H   0  0  0  0  0  0  0  0  0  0  0  0
   -5.1048    0.8565   -1.7258 H   0  0  0  0  0  0  0  0  0  0  0  0
   -5.8444   -0.7126   -2.0340 H   0  0  0  0  0  0  0  0  0  0  0  0
   -4.6351   -2.8557   -1.4103 H   0  0  0  0  0  0  0  0  0  0  0  0
   -3.2014   -2.8170   -0.3798 H   0  0  0  0  0  0  0  0  0  0  0  0
   -3.0949   -2.2763   -2.0617 H   0  0  0  0  0  0  0  0  0  0  0  0
  1  2  1  0
  2  3  2  3
  3  4  1  0
  4  5  1  0
  5  6  1  0
  6  7  2  0
  7  8  1  0
  8  9  2  0
  9 10  1  0
 10 11  2  0
  9 12  1  0
 12 13  2  0
 13 14  1  0
 14 15  2  0
 14 16  1  0
  2 17  1  0
 17 18  1  0
 18 19  1  0
 19 20  1  0
 20 21  1  0
 21 22  1  0
 22 23  1  0
 23 24  1  0
 24 25  1  0
 24 26  1  0
 20 27  1  0
 20 28  1  0
 11  6  1  0
 16  8  1  0
 24 19  1  0
 25 21  1  0
  1 29  1  0
  1 30  1  0
  1 31  1  0
  3 32  1  0
  4 33  1  0
  4 34  1  0
  7 35  1  0
 10 36  1  0
 11 37  1  0
 12 38  1  0
 13 39  1  0
 17 40  1  0
 17 41  1  0
 18 42  1  0
 18 43  1  0
 19 44  1  0
 21 45  1  0
 22 46  1  0
 22 47  1  0
 23 48  1  0
 23 49  1  0
 26 50  1  0
 26 51  1  0
 26 52  1  0
 27 53  1  0
 27 54  1  0
 27 55  1  0
 28 56  1  0
 28 57  1  0
 28 58  1  0
M  END
>  <Name>  (883) 
(-)-Farnesiferol C

>  <PubChem ID>  (883) 
131750876

>  <CDB ID>  (883) 
CDB0883

>  <Smiles>  (883) 
CC(=CCOC1=CC2=C(C=C1)C=CC(=O)O2)CCC3C(C4CCC3(O4)C)(C)C

>  <Chemical class>  (883) 
Sesquiterpenyl coumarins

>  <Natural source>  (883) 
Ferula pseudalliacea

>  <Molecular Formula>  (883) 
C24H30O4

>  <InChI-Key>  (883) 
OCHZHKVSLMBEJP-UHFFFAOYSA-N

>  <Total Molweight>  (883) 
382.498

>  <cLogP>  (883) 
5.0986

>  <cLogS>  (883) 
-5.119

>  <H-Acceptors>  (883) 
4

>  <H-Donors>  (883) 
0

>  <Rotatable Bonds>  (883) 
6

>  <Polar Surface Area>  (883) 
44.76

$$$$
CDB0884
     RDKit          3D

 58 61  0  0  0  0  0  0  0  0999 V2000
    0.1178   -3.6440    0.8006 C   0  0  0  0  0  0  0  0  0  0  0  0
   -0.7718   -2.4281    0.7058 C   0  0  0  0  0  0  0  0  0  0  0  0
   -1.5970   -2.1406    1.7309 C   0  0  0  0  0  0  0  0  0  0  0  0
   -2.5536   -0.9869    1.7716 C   0  0  0  0  0  0  0  0  0  0  0  0
   -2.7981   -0.3453    0.3920 C   0  0  0  0  0  0  0  0  0  0  0  0
   -1.4036   -0.1578   -0.2868 C   0  0  0  0  0  0  0  0  0  0  0  0
   -0.6981   -1.5487   -0.5655 C   0  0  0  0  0  0  0  0  0  0  0  0
   -1.3911   -2.3177   -1.7159 C   0  0  0  0  0  0  0  0  0  0  0  0
    0.7857   -1.3119   -1.0030 C   0  0  0  0  0  0  0  0  0  0  0  0
    1.4758   -0.5319   -0.0241 O   0  0  0  0  0  0  0  0  0  0  0  0
    2.7831   -0.2200   -0.2677 C   0  0  0  0  0  0  0  0  0  0  0  0
    3.3886    0.5540    0.7232 C   0  0  0  0  0  0  0  0  0  0  0  0
    4.7208    0.9349    0.5819 C   0  0  0  0  0  0  0  0  0  0  0  0
    5.4721    0.5614   -0.5284 C   0  0  0  0  0  0  0  0  0  0  0  0
    4.8669   -0.2132   -1.5182 C   0  0  0  0  0  0  0  0  0  0  0  0
    3.5261   -0.6026   -1.3881 C   0  0  0  0  0  0  0  0  0  0  0  0
    6.8580    0.9891   -0.6186 C   0  0  0  0  0  0  0  0  0  0  0  0
    7.3809    1.7309    0.3625 C   0  0  0  0  0  0  0  0  0  0  0  0
    6.6041    2.1397    1.5465 C   0  0  0  0  0  0  0  0  0  0  0  0
    7.1186    2.8225    2.4248 O   0  0  0  0  0  0  0  0  0  0  0  0
    5.2836    1.7171    1.6094 O   0  0  0  0  0  0  0  0  0  0  0  0
   -1.5104    0.7652   -1.5078 C   0  0  0  0  0  0  0  0  0  0  0  0
   -2.0094    2.1596   -1.1309 C   0  0  0  0  0  0  0  0  0  0  0  0
   -2.7839    2.2094    0.1887 C   0  0  0  0  0  0  0  0  0  0  0  0
   -3.6817    0.9664    0.4184 C   0  0  0  0  0  0  0  0  0  0  0  0
   -4.7623    0.8706   -0.6922 C   0  0  0  0  0  0  0  0  0  0  0  0
   -4.4655    1.1484    1.7404 C   0  0  0  0  0  0  0  0  0  0  0  0
   -3.5545    3.4103    0.2144 O   0  0  0  0  0  0  0  0  0  0  0  0
   -0.1217   -4.2604    1.6743 H   0  0  0  0  0  0  0  0  0  0  0  0
    1.1677   -3.3501    0.8927 H   0  0  0  0  0  0  0  0  0  0  0  0
    0.0047   -4.2834   -0.0793 H   0  0  0  0  0  0  0  0  0  0  0  0
   -1.5959   -2.7706    2.6188 H   0  0  0  0  0  0  0  0  0  0  0  0
   -2.1542   -0.2496    2.4777 H   0  0  0  0  0  0  0  0  0  0  0  0
   -3.5025   -1.3565    2.1763 H   0  0  0  0  0  0  0  0  0  0  0  0
   -3.3612   -1.0860   -0.1910 H   0  0  0  0  0  0  0  0  0  0  0  0
   -0.7708    0.3746    0.4404 H   0  0  0  0  0  0  0  0  0  0  0  0
   -0.8741   -3.2585   -1.9375 H   0  0  0  0  0  0  0  0  0  0  0  0
   -1.3907   -1.7405   -2.6461 H   0  0  0  0  0  0  0  0  0  0  0  0
   -2.4289   -2.5727   -1.4796 H   0  0  0  0  0  0  0  0  0  0  0  0
    0.8065   -0.7890   -1.9667 H   0  0  0  0  0  0  0  0  0  0  0  0
    1.2987   -2.2717   -1.1425 H   0  0  0  0  0  0  0  0  0  0  0  0
    2.8238    0.8567    1.6004 H   0  0  0  0  0  0  0  0  0  0  0  0
    5.4248   -0.5235   -2.3985 H   0  0  0  0  0  0  0  0  0  0  0  0
    3.0942   -1.2058   -2.1802 H   0  0  0  0  0  0  0  0  0  0  0  0
    7.4486    0.7001   -1.4807 H   0  0  0  0  0  0  0  0  0  0  0  0
    8.4090    2.0709    0.3356 H   0  0  0  0  0  0  0  0  0  0  0  0
   -2.1926    0.3310   -2.2467 H   0  0  0  0  0  0  0  0  0  0  0  0
   -0.5472    0.8784   -2.0144 H   0  0  0  0  0  0  0  0  0  0  0  0
   -2.6108    2.5674   -1.9535 H   0  0  0  0  0  0  0  0  0  0  0  0
   -1.1530    2.8420   -1.0478 H   0  0  0  0  0  0  0  0  0  0  0  0
   -2.0699    2.2814    1.0196 H   0  0  0  0  0  0  0  0  0  0  0  0
   -4.3314    0.7193   -1.6852 H   0  0  0  0  0  0  0  0  0  0  0  0
   -5.3760    1.7773   -0.7356 H   0  0  0  0  0  0  0  0  0  0  0  0
   -5.4390    0.0287   -0.5031 H   0  0  0  0  0  0  0  0  0  0  0  0
   -3.7951    1.3178    2.5893 H   0  0  0  0  0  0  0  0  0  0  0  0
   -5.1395    2.0117    1.6914 H   0  0  0  0  0  0  0  0  0  0  0  0
   -5.0887    0.2744    1.9592 H   0  0  0  0  0  0  0  0  0  0  0  0
   -2.9364    4.1557    0.1231 H   0  0  0  0  0  0  0  0  0  0  0  0
  1  2  1  0
  2  3  2  0
  3  4  1  0
  4  5  1  0
  5  6  1  0
  6  7  1  0
  7  8  1  0
  7  9  1  0
  9 10  1  0
 10 11  1  0
 11 12  2  0
 12 13  1  0
 13 14  2  0
 14 15  1  0
 15 16  2  0
 14 17  1  0
 17 18  2  0
 18 19  1  0
 19 20  2  0
 19 21  1  0
  6 22  1  0
 22 23  1  0
 23 24  1  0
 24 25  1  0
 25 26  1  0
 25 27  1  0
 24 28  1  0
  7  2  1  0
 25  5  1  0
 16 11  1  0
 21 13  1  0
  1 29  1  0
  1 30  1  0
  1 31  1  0
  3 32  1  0
  4 33  1  0
  4 34  1  0
  5 35  1  0
  6 36  1  0
  8 37  1  0
  8 38  1  0
  8 39  1  0
  9 40  1  0
  9 41  1  0
 12 42  1  0
 15 43  1  0
 16 44  1  0
 17 45  1  0
 18 46  1  0
 22 47  1  0
 22 48  1  0
 23 49  1  0
 23 50  1  0
 24 51  1  0
 26 52  1  0
 26 53  1  0
 26 54  1  0
 27 55  1  0
 27 56  1  0
 27 57  1  0
 28 58  1  0
M  END
>  <Name>  (884) 
Fnarthexol

>  <PubChem ID>  (884) 
102138447

>  <CDB ID>  (884) 
CDB0884

>  <Smiles>  (884) 
CC1=CCC2C(C1(C)COC3=CC4=C(C=C3)C=CC(=O)O4)CCC(C2(C)C)O

>  <Chemical class>  (884) 
Sesquiterpenyl coumarins

>  <Natural source>  (884) 
Ferula narthex

>  <Molecular Formula>  (884) 
C24H30O4

>  <InChI-Key>  (884) 
SFOGGSRHTFZOTM-UHFFFAOYSA-N

>  <Total Molweight>  (884) 
382.498

>  <cLogP>  (884) 
4.3522

>  <cLogS>  (884) 
-4.971

>  <H-Acceptors>  (884) 
4

>  <H-Donors>  (884) 
1

>  <Rotatable Bonds>  (884) 
3

>  <Polar Surface Area>  (884) 
55.76

$$$$
CDB0885
     RDKit          3D

 54 57  0  0  0  0  0  0  0  0999 V2000
   -4.1456    1.8165    1.9270 C   0  0  0  0  0  0  0  0  0  0  0  0
   -3.5289    1.3335    0.5874 C   0  0  0  0  0  0  0  0  0  0  0  0
   -2.0851    0.6958    0.7796 C   0  0  0  0  0  0  0  0  0  0  0  0
   -1.9702   -0.0819    2.0889 C   0  0  0  0  0  0  0  0  0  0  0  0
   -1.3574   -1.2595    2.2561 C   0  0  0  0  0  0  0  0  0  0  0  0
   -0.6454   -1.9239    1.1886 C   0  0  0  0  0  0  0  0  0  0  0  0
   -0.3756   -3.2343    1.3092 C   0  0  0  0  0  0  0  0  0  0  0  0
   -0.2676   -1.0004    0.0266 C   0  0  0  0  0  0  0  0  0  0  0  0
   -1.5439   -0.1656   -0.4514 C   0  0  0  0  0  0  0  0  0  0  0  0
   -2.6544   -1.1301   -0.9557 C   0  0  0  0  0  0  0  0  0  0  0  0
   -3.9766   -0.4483   -1.2555 C   0  0  0  0  0  0  0  0  0  0  0  0
   -4.4758    0.3084   -0.0481 C   0  0  0  0  0  0  0  0  0  0  0  0
   -5.6386    0.1602    0.3333 O   0  0  0  0  0  0  0  0  0  0  0  0
   -1.1164    0.7662   -1.6089 C   0  0  0  0  0  0  0  0  0  0  0  0
    0.5332   -1.7117   -1.1012 C   0  0  0  0  0  0  0  0  0  0  0  0
    1.2948   -0.7980   -1.9010 O   0  0  0  0  0  0  0  0  0  0  0  0
    2.5430   -0.4316   -1.4820 C   0  0  0  0  0  0  0  0  0  0  0  0
    3.1458   -0.7779   -0.2751 C   0  0  0  0  0  0  0  0  0  0  0  0
    4.4315   -0.3094    0.0016 C   0  0  0  0  0  0  0  0  0  0  0  0
    5.1332    0.4972   -0.8912 C   0  0  0  0  0  0  0  0  0  0  0  0
    4.5270    0.8457   -2.0962 C   0  0  0  0  0  0  0  0  0  0  0  0
    3.2383    0.3827   -2.3849 C   0  0  0  0  0  0  0  0  0  0  0  0
    6.4683    0.9482   -0.5368 C   0  0  0  0  0  0  0  0  0  0  0  0
    6.9959    0.5828    0.6356 C   0  0  0  0  0  0  0  0  0  0  0  0
    6.2740   -0.2686    1.5976 C   0  0  0  0  0  0  0  0  0  0  0  0
    6.7901   -0.5837    2.6635 O   0  0  0  0  0  0  0  0  0  0  0  0
    5.0005   -0.6862    1.2358 O   0  0  0  0  0  0  0  0  0  0  0  0
   -3.5073    2.5857   -0.3206 C   0  0  0  0  0  0  0  0  0  0  0  0
   -4.4135    0.9819    2.5843 H   0  0  0  0  0  0  0  0  0  0  0  0
   -5.0805    2.3675    1.7645 H   0  0  0  0  0  0  0  0  0  0  0  0
   -3.4602    2.4852    2.4595 H   0  0  0  0  0  0  0  0  0  0  0  0
   -1.3882    1.5374    0.9129 H   0  0  0  0  0  0  0  0  0  0  0  0
   -2.3855    0.3645    2.9892 H   0  0  0  0  0  0  0  0  0  0  0  0
   -1.3778   -1.7334    3.2360 H   0  0  0  0  0  0  0  0  0  0  0  0
   -0.6894   -3.7986    2.1846 H   0  0  0  0  0  0  0  0  0  0  0  0
    0.1431   -3.8118    0.5539 H   0  0  0  0  0  0  0  0  0  0  0  0
    0.4215   -0.2538    0.4515 H   0  0  0  0  0  0  0  0  0  0  0  0
   -2.8518   -1.9121   -0.2135 H   0  0  0  0  0  0  0  0  0  0  0  0
   -2.3227   -1.6503   -1.8619 H   0  0  0  0  0  0  0  0  0  0  0  0
   -3.9045    0.2318   -2.1083 H   0  0  0  0  0  0  0  0  0  0  0  0
   -4.7206   -1.2096   -1.5180 H   0  0  0  0  0  0  0  0  0  0  0  0
   -0.2814    1.4085   -1.3084 H   0  0  0  0  0  0  0  0  0  0  0  0
   -1.9107    1.4159   -1.9628 H   0  0  0  0  0  0  0  0  0  0  0  0
   -0.8158    0.1960   -2.4933 H   0  0  0  0  0  0  0  0  0  0  0  0
   -0.1559   -2.2238   -1.7810 H   0  0  0  0  0  0  0  0  0  0  0  0
    1.2022   -2.4954   -0.7321 H   0  0  0  0  0  0  0  0  0  0  0  0
    2.6522   -1.3933    0.4682 H   0  0  0  0  0  0  0  0  0  0  0  0
    5.0396    1.4742   -2.8198 H   0  0  0  0  0  0  0  0  0  0  0  0
    2.7693    0.6584   -3.3273 H   0  0  0  0  0  0  0  0  0  0  0  0
    7.0181    1.5756   -1.2296 H   0  0  0  0  0  0  0  0  0  0  0  0
    7.9874    0.8969    0.9382 H   0  0  0  0  0  0  0  0  0  0  0  0
   -4.3850    3.2207   -0.1460 H   0  0  0  0  0  0  0  0  0  0  0  0
   -2.6232    3.2029   -0.1296 H   0  0  0  0  0  0  0  0  0  0  0  0
   -3.5535    2.3529   -1.3855 H   0  0  0  0  0  0  0  0  0  0  0  0
  1  2  1  0
  2  3  1  0
  3  4  1  0
  4  5  2  0
  5  6  1  0
  6  7  2  0
  6  8  1  0
  8  9  1  0
  9 10  1  0
 10 11  1  0
 11 12  1  0
 12 13  2  0
  9 14  1  0
  8 15  1  0
 15 16  1  0
 16 17  1  0
 17 18  2  0
 18 19  1  0
 19 20  2  0
 20 21  1  0
 21 22  2  0
 20 23  1  0
 23 24  2  0
 24 25  1  0
 25 26  2  0
 25 27  1  0
  2 28  1  0
 12  2  1  0
  9  3  1  0
 22 17  1  0
 27 19  1  0
  1 29  1  0
  1 30  1  0
  1 31  1  0
  3 32  1  0
  4 33  1  0
  5 34  1  0
  7 35  1  0
  7 36  1  0
  8 37  1  0
 10 38  1  0
 10 39  1  0
 11 40  1  0
 11 41  1  0
 14 42  1  0
 14 43  1  0
 14 44  1  0
 15 45  1  0
 15 46  1  0
 18 47  1  0
 21 48  1  0
 22 49  1  0
 23 50  1  0
 24 51  1  0
 28 52  1  0
 28 53  1  0
 28 54  1  0
M  END
>  <Name>  (885) 
Fnarthexone

>  <PubChem ID>  (885) 
102138446

>  <CDB ID>  (885) 
CDB0885

>  <Smiles>  (885) 
CC1(C2C=CC(=C)C(C2(CCC1=O)C)COC3=CC4=C(C=C3)C=CC(=O)O4)C

>  <Chemical class>  (885) 
Sesquiterpenyl coumarins

>  <Natural source>  (885) 
Ferula narthex

>  <Molecular Formula>  (885) 
C24H26O4

>  <InChI-Key>  (885) 
XGQPCBYDVVIEFY-UHFFFAOYSA-N

>  <Total Molweight>  (885) 
378.466

>  <cLogP>  (885) 
4.2988

>  <cLogS>  (885) 
-4.961

>  <H-Acceptors>  (885) 
4

>  <H-Donors>  (885) 
0

>  <Rotatable Bonds>  (885) 
3

>  <Polar Surface Area>  (885) 
52.6

$$$$
CDB0886
     RDKit          3D

 64 67  0  0  0  0  0  0  0  0999 V2000
   -0.3738   -3.7710    0.2327 C   0  0  0  0  0  0  0  0  0  0  0  0
   -1.0613   -2.4535    0.6314 C   0  0  0  0  0  0  0  0  0  0  0  0
   -2.0309   -2.0469   -0.4724 C   0  0  0  0  0  0  0  0  0  0  0  0
   -2.9441   -0.8633   -0.1202 C   0  0  0  0  0  0  0  0  0  0  0  0
   -2.4004    0.1041    0.9945 C   0  0  0  0  0  0  0  0  0  0  0  0
   -2.9642    1.5631    0.7620 C   0  0  0  0  0  0  0  0  0  0  0  0
   -2.2944    2.5609    1.7017 C   0  0  0  0  0  0  0  0  0  0  0  0
   -2.9233    3.3441    2.4110 O   0  0  0  0  0  0  0  0  0  0  0  0
   -0.7916    2.5916    1.6520 C   0  0  0  0  0  0  0  0  0  0  0  0
   -0.2435    1.1967    1.9001 C   0  0  0  0  0  0  0  0  0  0  0  0
   -0.8234    0.1439    0.9185 C   0  0  0  0  0  0  0  0  0  0  0  0
   -0.0855   -1.2746    0.9945 C   0  0  0  0  0  0  0  0  0  0  0  0
    0.4988   -1.5545    2.4041 C   0  0  0  0  0  0  0  0  0  0  0  0
    1.1233   -1.2594   -0.0096 C   0  0  0  0  0  0  0  0  0  0  0  0
    1.9838   -0.1488    0.2438 O   0  0  0  0  0  0  0  0  0  0  0  0
    3.0555    0.0240   -0.5862 C   0  0  0  0  0  0  0  0  0  0  0  0
    3.8222    1.1582   -0.3157 C   0  0  0  0  0  0  0  0  0  0  0  0
    4.9402    1.4363   -1.0984 C   0  0  0  0  0  0  0  0  0  0  0  0
    5.3187    0.6074   -2.1503 C   0  0  0  0  0  0  0  0  0  0  0  0
    4.5533   -0.5275   -2.4189 C   0  0  0  0  0  0  0  0  0  0  0  0
    3.4250   -0.8184   -1.6388 C   0  0  0  0  0  0  0  0  0  0  0  0
    6.4961    0.9504   -2.9301 C   0  0  0  0  0  0  0  0  0  0  0  0
    7.1887    2.0515   -2.6230 C   0  0  0  0  0  0  0  0  0  0  0  0
    6.8060    2.9446   -1.5147 C   0  0  0  0  0  0  0  0  0  0  0  0
    7.4656    3.9468   -1.2646 O   0  0  0  0  0  0  0  0  0  0  0  0
    5.6784    2.5943   -0.7850 O   0  0  0  0  0  0  0  0  0  0  0  0
   -4.4900    1.6871    0.8604 C   0  0  0  0  0  0  0  0  0  0  0  0
   -2.8945   -0.3815    2.3855 C   0  0  0  0  0  0  0  0  0  0  0  0
   -3.1320   -0.1247   -1.3555 O   0  0  0  0  0  0  0  0  0  0  0  0
   -4.0652   -0.6089   -2.2222 C   0  0  0  0  0  0  0  0  0  0  0  0
   -4.7355   -1.6169   -2.0561 O   0  0  0  0  0  0  0  0  0  0  0  0
   -4.1522    0.2801   -3.4243 C   0  0  0  0  0  0  0  0  0  0  0  0
    0.1417   -3.6899   -0.7298 H   0  0  0  0  0  0  0  0  0  0  0  0
   -1.1182   -4.5693    0.1312 H   0  0  0  0  0  0  0  0  0  0  0  0
    0.3464   -4.0985    0.9873 H   0  0  0  0  0  0  0  0  0  0  0  0
   -1.6546   -2.7120    1.5138 H   0  0  0  0  0  0  0  0  0  0  0  0
   -2.6707   -2.9013   -0.7315 H   0  0  0  0  0  0  0  0  0  0  0  0
   -1.4692   -1.8300   -1.3909 H   0  0  0  0  0  0  0  0  0  0  0  0
   -3.9195   -1.2458    0.2086 H   0  0  0  0  0  0  0  0  0  0  0  0
   -2.6780    1.9068   -0.2415 H   0  0  0  0  0  0  0  0  0  0  0  0
   -0.4196    3.2821    2.4162 H   0  0  0  0  0  0  0  0  0  0  0  0
   -0.4825    2.9731    0.6730 H   0  0  0  0  0  0  0  0  0  0  0  0
    0.8450    1.2562    1.8176 H   0  0  0  0  0  0  0  0  0  0  0  0
   -0.4620    0.9100    2.9352 H   0  0  0  0  0  0  0  0  0  0  0  0
   -0.6094    0.5325   -0.0902 H   0  0  0  0  0  0  0  0  0  0  0  0
    0.9743   -2.5396    2.4526 H   0  0  0  0  0  0  0  0  0  0  0  0
   -0.2768   -1.5323    3.1749 H   0  0  0  0  0  0  0  0  0  0  0  0
    1.2707   -0.8316    2.6866 H   0  0  0  0  0  0  0  0  0  0  0  0
    1.7087   -2.1801    0.0999 H   0  0  0  0  0  0  0  0  0  0  0  0
    0.7398   -1.1921   -1.0350 H   0  0  0  0  0  0  0  0  0  0  0  0
    3.5498    1.8209    0.5007 H   0  0  0  0  0  0  0  0  0  0  0  0
    4.8218   -1.1980   -3.2319 H   0  0  0  0  0  0  0  0  0  0  0  0
    2.8597   -1.7132   -1.8792 H   0  0  0  0  0  0  0  0  0  0  0  0
    6.7967    0.3078   -3.7500 H   0  0  0  0  0  0  0  0  0  0  0  0
    8.0719    2.3440   -3.1777 H   0  0  0  0  0  0  0  0  0  0  0  0
   -4.8071    2.6923    0.5589 H   0  0  0  0  0  0  0  0  0  0  0  0
   -4.8488    1.5375    1.8839 H   0  0  0  0  0  0  0  0  0  0  0  0
   -5.0047    0.9760    0.2095 H   0  0  0  0  0  0  0  0  0  0  0  0
   -2.4636   -1.3301    2.6982 H   0  0  0  0  0  0  0  0  0  0  0  0
   -3.9805   -0.5268    2.3914 H   0  0  0  0  0  0  0  0  0  0  0  0
   -2.6664    0.3399    3.1765 H   0  0  0  0  0  0  0  0  0  0  0  0
   -4.9110   -0.1091   -4.1090 H   0  0  0  0  0  0  0  0  0  0  0  0
   -4.4434    1.2883   -3.1187 H   0  0  0  0  0  0  0  0  0  0  0  0
   -3.1902    0.2974   -3.9425 H   0  0  0  0  0  0  0  0  0  0  0  0
  1  2  1  0
  2  3  1  0
  3  4  1  0
  4  5  1  0
  5  6  1  0
  6  7  1  0
  7  8  2  0
  7  9  1  0
  9 10  1  0
 10 11  1  0
 11 12  1  0
 12 13  1  0
 12 14  1  0
 14 15  1  0
 15 16  1  0
 16 17  2  0
 17 18  1  0
 18 19  2  0
 19 20  1  0
 20 21  2  0
 19 22  1  0
 22 23  2  0
 23 24  1  0
 24 25  2  0
 24 26  1  0
  6 27  1  0
  5 28  1  0
  4 29  1  0
 29 30  1  0
 30 31  2  0
 30 32  1  0
 12  2  1  0
 11  5  1  0
 21 16  1  0
 26 18  1  0
  1 33  1  0
  1 34  1  0
  1 35  1  0
  2 36  1  0
  3 37  1  0
  3 38  1  0
  4 39  1  0
  6 40  1  0
  9 41  1  0
  9 42  1  0
 10 43  1  0
 10 44  1  0
 11 45  1  0
 13 46  1  0
 13 47  1  0
 13 48  1  0
 14 49  1  0
 14 50  1  0
 17 51  1  0
 20 52  1  0
 21 53  1  0
 22 54  1  0
 23 55  1  0
 27 56  1  0
 27 57  1  0
 27 58  1  0
 28 59  1  0
 28 60  1  0
 28 61  1  0
 32 62  1  0
 32 63  1  0
 32 64  1  0
M  END
>  <Name>  (886) 
Kamolonol Acetate

>  <PubChem ID>  (886) 
59052605

>  <CDB ID>  (886) 
CDB0886

>  <Smiles>  (886) 
CC1CC(C2(C(C(=O)CCC2C1(C)COC3=CC4=C(C=C3)C=CC(=O)O4)C)C)OC(=O)C

>  <Chemical class>  (886) 
Sesquiterpenyl coumarins

>  <Natural source>  (886) 
Ferula pseudalliacea

>  <Molecular Formula>  (886) 
C26H32O6

>  <InChI-Key>  (886) 
PIGAODQEDMJGTF-UHFFFAOYSA-N

>  <Total Molweight>  (886) 
440.534

>  <cLogP>  (886) 
4.2329

>  <cLogS>  (886) 
-5.297

>  <H-Acceptors>  (886) 
6

>  <H-Donors>  (886) 
0

>  <Rotatable Bonds>  (886) 
5

>  <Polar Surface Area>  (886) 
78.9

$$$$
CDB0887
     RDKit          3D

 60 63  0  0  0  0  0  0  0  0999 V2000
   -1.2905   -1.8229    2.7145 C   0  0  0  0  0  0  0  0  0  0  0  0
   -0.5273   -1.4742    1.4259 C   0  0  0  0  0  0  0  0  0  0  0  0
   -1.0851   -2.2865    0.2506 C   0  0  0  0  0  0  0  0  0  0  0  0
   -2.4554   -1.7923   -0.1966 C   0  0  0  0  0  0  0  0  0  0  0  0
   -2.4939   -0.3107   -0.6517 C   0  0  0  0  0  0  0  0  0  0  0  0
   -3.9997    0.1531   -0.9418 C   0  0  0  0  0  0  0  0  0  0  0  0
   -4.2153    1.6502   -0.6654 C   0  0  0  0  0  0  0  0  0  0  0  0
   -3.9183    2.0135    0.7847 C   0  0  0  0  0  0  0  0  0  0  0  0
   -2.8162    1.1620    1.4262 C   0  0  0  0  0  0  0  0  0  0  0  0
   -1.7749    0.6307    0.4126 C   0  0  0  0  0  0  0  0  0  0  0  0
   -0.4432    0.0554    1.0903 C   0  0  0  0  0  0  0  0  0  0  0  0
   -0.0650    0.8491    2.3742 C   0  0  0  0  0  0  0  0  0  0  0  0
    0.7609    0.2971    0.1044 C   0  0  0  0  0  0  0  0  0  0  0  0
    2.0013   -0.0820    0.7149 O   0  0  0  0  0  0  0  0  0  0  0  0
    3.1431    0.0866   -0.0173 C   0  0  0  0  0  0  0  0  0  0  0  0
    4.3139   -0.3028    0.6347 C   0  0  0  0  0  0  0  0  0  0  0  0
    5.5390   -0.1767   -0.0158 C   0  0  0  0  0  0  0  0  0  0  0  0
    5.6295    0.3307   -1.3086 C   0  0  0  0  0  0  0  0  0  0  0  0
    4.4591    0.7199   -1.9601 C   0  0  0  0  0  0  0  0  0  0  0  0
    3.2195    0.5982   -1.3161 C   0  0  0  0  0  0  0  0  0  0  0  0
    6.9365    0.4377   -1.9347 C   0  0  0  0  0  0  0  0  0  0  0  0
    8.0217    0.0482   -1.2587 C   0  0  0  0  0  0  0  0  0  0  0  0
    7.9502   -0.4917    0.1109 C   0  0  0  0  0  0  0  0  0  0  0  0
    8.9685   -0.8381    0.6986 O   0  0  0  0  0  0  0  0  0  0  0  0
    6.6905   -0.5839    0.6862 O   0  0  0  0  0  0  0  0  0  0  0  0
   -3.3838    2.4197   -1.5337 O   0  0  0  0  0  0  0  0  0  0  0  0
   -5.1059   -0.6554   -0.2406 C   0  0  0  0  0  0  0  0  0  0  0  0
   -1.7641   -0.2225   -2.0265 C   0  0  0  0  0  0  0  0  0  0  0  0
   -1.3510   -2.9098    2.8426 H   0  0  0  0  0  0  0  0  0  0  0  0
   -0.7734   -1.4375    3.5987 H   0  0  0  0  0  0  0  0  0  0  0  0
   -2.3103   -1.4361    2.7207 H   0  0  0  0  0  0  0  0  0  0  0  0
    0.4920   -1.8455    1.5999 H   0  0  0  0  0  0  0  0  0  0  0  0
   -0.3794   -2.2781   -0.5856 H   0  0  0  0  0  0  0  0  0  0  0  0
   -1.1692   -3.3421    0.5398 H   0  0  0  0  0  0  0  0  0  0  0  0
   -2.8110   -2.4381   -1.0100 H   0  0  0  0  0  0  0  0  0  0  0  0
   -3.1414   -1.9525    0.6410 H   0  0  0  0  0  0  0  0  0  0  0  0
   -4.1909    0.0082   -2.0144 H   0  0  0  0  0  0  0  0  0  0  0  0
   -5.2468    1.9332   -0.9069 H   0  0  0  0  0  0  0  0  0  0  0  0
   -4.8267    1.9005    1.3891 H   0  0  0  0  0  0  0  0  0  0  0  0
   -3.6317    3.0707    0.8495 H   0  0  0  0  0  0  0  0  0  0  0  0
   -3.2742    0.3279    1.9645 H   0  0  0  0  0  0  0  0  0  0  0  0
   -2.3576    1.8005    2.1858 H   0  0  0  0  0  0  0  0  0  0  0  0
   -1.4472    1.5317   -0.1263 H   0  0  0  0  0  0  0  0  0  0  0  0
    0.8687    0.4831    2.8163 H   0  0  0  0  0  0  0  0  0  0  0  0
   -0.8206    0.7701    3.1607 H   0  0  0  0  0  0  0  0  0  0  0  0
    0.0717    1.9132    2.1490 H   0  0  0  0  0  0  0  0  0  0  0  0
    0.6474   -0.2899   -0.8036 H   0  0  0  0  0  0  0  0  0  0  0  0
    0.8031    1.3624   -0.1570 H   0  0  0  0  0  0  0  0  0  0  0  0
    4.2696   -0.7021    1.6439 H   0  0  0  0  0  0  0  0  0  0  0  0
    4.4926    1.1204   -2.9705 H   0  0  0  0  0  0  0  0  0  0  0  0
    2.3331    0.9123   -1.8583 H   0  0  0  0  0  0  0  0  0  0  0  0
    7.0127    0.8320   -2.9418 H   0  0  0  0  0  0  0  0  0  0  0  0
    9.0145    0.1106   -1.6873 H   0  0  0  0  0  0  0  0  0  0  0  0
   -3.6069    3.3567   -1.3973 H   0  0  0  0  0  0  0  0  0  0  0  0
   -5.1101   -1.6957   -0.5815 H   0  0  0  0  0  0  0  0  0  0  0  0
   -6.0929   -0.2459   -0.4848 H   0  0  0  0  0  0  0  0  0  0  0  0
   -5.0097   -0.6473    0.8482 H   0  0  0  0  0  0  0  0  0  0  0  0
   -1.5930    0.8138   -2.3321 H   0  0  0  0  0  0  0  0  0  0  0  0
   -2.3529   -0.7057   -2.8159 H   0  0  0  0  0  0  0  0  0  0  0  0
   -0.8035   -0.7335   -2.0456 H   0  0  0  0  0  0  0  0  0  0  0  0
  1  2  1  0
  2  3  1  0
  3  4  1  0
  4  5  1  0
  5  6  1  0
  6  7  1  0
  7  8  1  0
  8  9  1  0
  9 10  1  0
 10 11  1  0
 11 12  1  0
 11 13  1  0
 13 14  1  0
 14 15  1  0
 15 16  2  0
 16 17  1  0
 17 18  2  0
 18 19  1  0
 19 20  2  0
 18 21  1  0
 21 22  2  0
 22 23  1  0
 23 24  2  0
 23 25  1  0
  7 26  1  0
  6 27  1  0
  5 28  1  0
 11  2  1  0
 10  5  1  0
 20 15  1  0
 25 17  1  0
  1 29  1  0
  1 30  1  0
  1 31  1  0
  2 32  1  0
  3 33  1  0
  3 34  1  0
  4 35  1  0
  4 36  1  0
  6 37  1  0
  7 38  1  0
  8 39  1  0
  8 40  1  0
  9 41  1  0
  9 42  1  0
 10 43  1  0
 12 44  1  0
 12 45  1  0
 12 46  1  0
 13 47  1  0
 13 48  1  0
 16 49  1  0
 19 50  1  0
 20 51  1  0
 21 52  1  0
 22 53  1  0
 26 54  1  0
 27 55  1  0
 27 56  1  0
 27 57  1  0
 28 58  1  0
 28 59  1  0
 28 60  1  0
M  END
>  <Name>  (887) 
Lehmannolol

>  <PubChem ID>  (887) 
16093743

>  <CDB ID>  (887) 
CDB0887

>  <Smiles>  (887) 
CC1CCC2(C(C(CCC2C1(C)COC3=CC4=C(C=C3)C=CC(=O)O4)O)C)C

>  <Chemical class>  (887) 
Sesquiterpenyl coumarins

>  <Natural source>  (887) 
Ferula sinkiangensis

>  <Molecular Formula>  (887) 
C24H32O4

>  <InChI-Key>  (887) 
VZHMLYJMPGDZPE-UHFFFAOYSA-N

>  <Total Molweight>  (887) 
384.514

>  <cLogP>  (887) 
4.4567

>  <cLogS>  (887) 
-5.235

>  <H-Acceptors>  (887) 
4

>  <H-Donors>  (887) 
1

>  <Rotatable Bonds>  (887) 
3

>  <Polar Surface Area>  (887) 
55.76

$$$$
CDB0888
     RDKit          3D

 58 61  0  0  0  0  0  0  0  0999 V2000
   -0.0461   -3.0773   -1.4266 C   0  0  0  0  0  0  0  0  0  0  0  0
   -0.8583   -2.0057   -0.6806 C   0  0  0  0  0  0  0  0  0  0  0  0
   -2.3458   -2.3405   -0.8369 C   0  0  0  0  0  0  0  0  0  0  0  0
   -3.2119   -1.5551    0.1419 C   0  0  0  0  0  0  0  0  0  0  0  0
   -2.8343   -0.0514    0.2801 C   0  0  0  0  0  0  0  0  0  0  0  0
   -4.1322    0.8379    0.2740 C   0  0  0  0  0  0  0  0  0  0  0  0
   -3.7496    2.3107    0.2892 C   0  0  0  0  0  0  0  0  0  0  0  0
   -4.2397    3.0969    1.0986 O   0  0  0  0  0  0  0  0  0  0  0  0
   -2.8046    2.7753   -0.7900 C   0  0  0  0  0  0  0  0  0  0  0  0
   -1.5525    1.9116   -0.8092 C   0  0  0  0  0  0  0  0  0  0  0  0
   -1.8635    0.3942   -0.8771 C   0  0  0  0  0  0  0  0  0  0  0  0
   -0.5655   -0.5094   -1.0840 C   0  0  0  0  0  0  0  0  0  0  0  0
   -0.1868   -0.4224   -2.5914 C   0  0  0  0  0  0  0  0  0  0  0  0
    0.6599    0.0363   -0.2786 C   0  0  0  0  0  0  0  0  0  0  0  0
    1.7970   -0.8129   -0.4393 O   0  0  0  0  0  0  0  0  0  0  0  0
    2.9397   -0.4709    0.2280 C   0  0  0  0  0  0  0  0  0  0  0  0
    3.1149    0.6507    1.0353 C   0  0  0  0  0  0  0  0  0  0  0  0
    4.3516    0.8584    1.6486 C   0  0  0  0  0  0  0  0  0  0  0  0
    5.4184   -0.0213    1.4792 C   0  0  0  0  0  0  0  0  0  0  0  0
    5.2401   -1.1420    0.6705 C   0  0  0  0  0  0  0  0  0  0  0  0
    4.0053   -1.3614    0.0496 C   0  0  0  0  0  0  0  0  0  0  0  0
    6.6775    0.2580    2.1487 C   0  0  0  0  0  0  0  0  0  0  0  0
    6.7885    1.3501    2.9110 C   0  0  0  0  0  0  0  0  0  0  0  0
    5.6758    2.2965    3.1050 C   0  0  0  0  0  0  0  0  0  0  0  0
    5.8149    3.2890    3.8104 O   0  0  0  0  0  0  0  0  0  0  0  0
    4.4833    2.0071    2.4560 O   0  0  0  0  0  0  0  0  0  0  0  0
   -5.1054    0.6314   -0.8944 C   0  0  0  0  0  0  0  0  0  0  0  0
   -2.1818    0.1246    1.6807 C   0  0  0  0  0  0  0  0  0  0  0  0
   -0.2389   -4.0657   -0.9931 H   0  0  0  0  0  0  0  0  0  0  0  0
   -0.3213   -3.1324   -2.4849 H   0  0  0  0  0  0  0  0  0  0  0  0
    1.0305   -2.9092   -1.3588 H   0  0  0  0  0  0  0  0  0  0  0  0
   -0.6088   -2.1265    0.3820 H   0  0  0  0  0  0  0  0  0  0  0  0
   -2.6730   -2.1429   -1.8654 H   0  0  0  0  0  0  0  0  0  0  0  0
   -2.5188   -3.4101   -0.6629 H   0  0  0  0  0  0  0  0  0  0  0  0
   -4.2522   -1.6970   -0.1605 H   0  0  0  0  0  0  0  0  0  0  0  0
   -3.1493   -2.0468    1.1224 H   0  0  0  0  0  0  0  0  0  0  0  0
   -4.6958    0.6458    1.1974 H   0  0  0  0  0  0  0  0  0  0  0  0
   -2.5320    3.8192   -0.6008 H   0  0  0  0  0  0  0  0  0  0  0  0
   -3.3245    2.7382   -1.7527 H   0  0  0  0  0  0  0  0  0  0  0  0
   -0.9472    2.2163   -1.6696 H   0  0  0  0  0  0  0  0  0  0  0  0
   -0.9609    2.1411    0.0838 H   0  0  0  0  0  0  0  0  0  0  0  0
   -2.4453    0.2662   -1.8017 H   0  0  0  0  0  0  0  0  0  0  0  0
   -0.9786   -0.8386   -3.2239 H   0  0  0  0  0  0  0  0  0  0  0  0
    0.7392   -0.9606   -2.8187 H   0  0  0  0  0  0  0  0  0  0  0  0
   -0.0265    0.6137   -2.9069 H   0  0  0  0  0  0  0  0  0  0  0  0
    0.9261    1.0351   -0.6445 H   0  0  0  0  0  0  0  0  0  0  0  0
    0.4104    0.1001    0.7838 H   0  0  0  0  0  0  0  0  0  0  0  0
    2.3251    1.3729    1.2061 H   0  0  0  0  0  0  0  0  0  0  0  0
    6.0471   -1.8527    0.5122 H   0  0  0  0  0  0  0  0  0  0  0  0
    3.8702   -2.2377   -0.5812 H   0  0  0  0  0  0  0  0  0  0  0  0
    7.5100   -0.4249    2.0201 H   0  0  0  0  0  0  0  0  0  0  0  0
    7.7088    1.5950    3.4272 H   0  0  0  0  0  0  0  0  0  0  0  0
   -4.6003    0.6156   -1.8640 H   0  0  0  0  0  0  0  0  0  0  0  0
   -5.8443    1.4408   -0.9303 H   0  0  0  0  0  0  0  0  0  0  0  0
   -5.6685   -0.3002   -0.7908 H   0  0  0  0  0  0  0  0  0  0  0  0
   -1.3496   -0.5655    1.8376 H   0  0  0  0  0  0  0  0  0  0  0  0
   -1.8128    1.1394    1.8525 H   0  0  0  0  0  0  0  0  0  0  0  0
   -2.9081   -0.0868    2.4755 H   0  0  0  0  0  0  0  0  0  0  0  0
  1  2  1  0
  2  3  1  0
  3  4  1  0
  4  5  1  0
  5  6  1  0
  6  7  1  0
  7  8  2  0
  7  9  1  0
  9 10  1  0
 10 11  1  0
 11 12  1  0
 12 13  1  0
 12 14  1  0
 14 15  1  0
 15 16  1  0
 16 17  2  0
 17 18  1  0
 18 19  2  0
 19 20  1  0
 20 21  2  0
 19 22  1  0
 22 23  2  0
 23 24  1  0
 24 25  2  0
 24 26  1  0
  6 27  1  0
  5 28  1  0
 12  2  1  0
 11  5  1  0
 21 16  1  0
 26 18  1  0
  1 29  1  0
  1 30  1  0
  1 31  1  0
  2 32  1  0
  3 33  1  0
  3 34  1  0
  4 35  1  0
  4 36  1  0
  6 37  1  0
  9 38  1  0
  9 39  1  0
 10 40  1  0
 10 41  1  0
 11 42  1  0
 13 43  1  0
 13 44  1  0
 13 45  1  0
 14 46  1  0
 14 47  1  0
 17 48  1  0
 20 49  1  0
 21 50  1  0
 22 51  1  0
 23 52  1  0
 27 53  1  0
 27 54  1  0
 27 55  1  0
 28 56  1  0
 28 57  1  0
 28 58  1  0
M  END
>  <Name>  (888) 
Lehmannolone

>  <PubChem ID>  (888) 
101418600

>  <CDB ID>  (888) 
CDB0888

>  <Smiles>  (888) 
CC1CCC2(C(C(=O)CCC2C1(C)COC3=CC4=C(C=C3)C=CC(=O)O4)C)C

>  <Chemical class>  (888) 
Sesquiterpenyl coumarins

>  <Natural source>  (888) 
Ferula sinkiangensis

>  <Molecular Formula>  (888) 
C24H30O4

>  <InChI-Key>  (888) 
RMXJARGUSLRHBH-UHFFFAOYSA-N

>  <Total Molweight>  (888) 
382.498

>  <cLogP>  (888) 
4.6004

>  <cLogS>  (888) 
-5.286

>  <H-Acceptors>  (888) 
4

>  <H-Donors>  (888) 
0

>  <Rotatable Bonds>  (888) 
3

>  <Polar Surface Area>  (888) 
52.6

$$$$
CDB0889
     RDKit          3D

 58 61  0  0  0  0  0  0  0  0999 V2000
    0.9740    1.8982   -2.2278 C   0  0  0  0  0  0  0  0  0  0  0  0
   -0.3180    1.3940   -1.6367 C   0  0  0  0  0  0  0  0  0  0  0  0
   -1.4827    1.6907   -2.2419 C   0  0  0  0  0  0  0  0  0  0  0  0
   -2.8366    1.3594   -1.6922 C   0  0  0  0  0  0  0  0  0  0  0  0
   -2.7896    0.9496   -0.2052 C   0  0  0  0  0  0  0  0  0  0  0  0
   -4.2059    0.6435    0.4229 C   0  0  0  0  0  0  0  0  0  0  0  0
   -4.0211    0.1958    1.9017 C   0  0  0  0  0  0  0  0  0  0  0  0
   -3.0011   -0.9248    2.0621 C   0  0  0  0  0  0  0  0  0  0  0  0
   -1.6351   -0.5166    1.5301 C   0  0  0  0  0  0  0  0  0  0  0  0
   -1.6431   -0.1037    0.0342 C   0  0  0  0  0  0  0  0  0  0  0  0
   -0.2575    0.6086   -0.3142 C   0  0  0  0  0  0  0  0  0  0  0  0
    0.9445   -0.3783   -0.2670 C   0  0  0  0  0  0  0  0  0  0  0  0
    2.1483    0.3542   -0.0042 O   0  0  0  0  0  0  0  0  0  0  0  0
    3.3212   -0.3474    0.0173 C   0  0  0  0  0  0  0  0  0  0  0  0
    4.4598    0.4314    0.2286 C   0  0  0  0  0  0  0  0  0  0  0  0
    5.7122   -0.1766    0.2698 C   0  0  0  0  0  0  0  0  0  0  0  0
    5.8615   -1.5506    0.1062 C   0  0  0  0  0  0  0  0  0  0  0  0
    4.7230   -2.3290   -0.1033 C   0  0  0  0  0  0  0  0  0  0  0  0
    3.4564   -1.7289   -0.1472 C   0  0  0  0  0  0  0  0  0  0  0  0
    7.1947   -2.1266    0.1594 C   0  0  0  0  0  0  0  0  0  0  0  0
    8.2468   -1.3280    0.3635 C   0  0  0  0  0  0  0  0  0  0  0  0
    8.1128    0.1293    0.5391 C   0  0  0  0  0  0  0  0  0  0  0  0
    9.1021    0.8288    0.7238 O   0  0  0  0  0  0  0  0  0  0  0  0
    6.8292    0.6544    0.4843 O   0  0  0  0  0  0  0  0  0  0  0  0
   -1.7997   -1.3765   -0.8361 C   0  0  0  0  0  0  0  0  0  0  0  0
   -5.2442   -0.2625    2.4756 O   0  0  0  0  0  0  0  0  0  0  0  0
   -5.0449    1.9533    0.4253 C   0  0  0  0  0  0  0  0  0  0  0  0
   -5.0478   -0.3872   -0.3608 C   0  0  0  0  0  0  0  0  0  0  0  0
    0.8040    2.5513   -3.0911 H   0  0  0  0  0  0  0  0  0  0  0  0
    1.5977    1.0677   -2.5715 H   0  0  0  0  0  0  0  0  0  0  0  0
    1.5282    2.4843   -1.4880 H   0  0  0  0  0  0  0  0  0  0  0  0
   -1.4814    2.2427   -3.1803 H   0  0  0  0  0  0  0  0  0  0  0  0
   -3.4622    2.2500   -1.8120 H   0  0  0  0  0  0  0  0  0  0  0  0
   -3.2743    0.5742   -2.3161 H   0  0  0  0  0  0  0  0  0  0  0  0
   -2.4507    1.8496    0.3371 H   0  0  0  0  0  0  0  0  0  0  0  0
   -3.6841    1.0492    2.5051 H   0  0  0  0  0  0  0  0  0  0  0  0
   -2.9120   -1.1792    3.1263 H   0  0  0  0  0  0  0  0  0  0  0  0
   -3.3524   -1.8451    1.5819 H   0  0  0  0  0  0  0  0  0  0  0  0
   -1.2657    0.3193    2.1389 H   0  0  0  0  0  0  0  0  0  0  0  0
   -0.9446   -1.3491    1.7040 H   0  0  0  0  0  0  0  0  0  0  0  0
   -0.0743    1.3727    0.4568 H   0  0  0  0  0  0  0  0  0  0  0  0
    0.8171   -1.1009    0.5434 H   0  0  0  0  0  0  0  0  0  0  0  0
    1.0278   -0.9134   -1.2214 H   0  0  0  0  0  0  0  0  0  0  0  0
    4.3701    1.5061    0.3594 H   0  0  0  0  0  0  0  0  0  0  0  0
    4.8030   -3.4056   -0.2341 H   0  0  0  0  0  0  0  0  0  0  0  0
    2.5966   -2.3710   -0.3102 H   0  0  0  0  0  0  0  0  0  0  0  0
    7.3170   -3.1964    0.0329 H   0  0  0  0  0  0  0  0  0  0  0  0
    9.2572   -1.7154    0.4103 H   0  0  0  0  0  0  0  0  0  0  0  0
   -2.7455   -1.8882   -0.6696 H   0  0  0  0  0  0  0  0  0  0  0  0
   -1.0237   -2.1147   -0.6053 H   0  0  0  0  0  0  0  0  0  0  0  0
   -1.7259   -1.1638   -1.9065 H   0  0  0  0  0  0  0  0  0  0  0  0
   -5.8220    0.5082    2.6032 H   0  0  0  0  0  0  0  0  0  0  0  0
   -5.2687    2.2948   -0.5903 H   0  0  0  0  0  0  0  0  0  0  0  0
   -4.5172    2.7616    0.9438 H   0  0  0  0  0  0  0  0  0  0  0  0
   -6.0094    1.8174    0.9263 H   0  0  0  0  0  0  0  0  0  0  0  0
   -4.6559   -1.4012   -0.2894 H   0  0  0  0  0  0  0  0  0  0  0  0
   -6.0728   -0.4322    0.0279 H   0  0  0  0  0  0  0  0  0  0  0  0
   -5.1351   -0.1274   -1.4196 H   0  0  0  0  0  0  0  0  0  0  0  0
  1  2  1  0
  2  3  2  0
  3  4  1  0
  4  5  1  0
  5  6  1  0
  6  7  1  0
  7  8  1  0
  8  9  1  0
  9 10  1  0
 10 11  1  0
 11 12  1  0
 12 13  1  0
 13 14  1  0
 14 15  2  0
 15 16  1  0
 16 17  2  0
 17 18  1  0
 18 19  2  0
 17 20  1  0
 20 21  2  0
 21 22  1  0
 22 23  2  0
 22 24  1  0
 10 25  1  0
  7 26  1  0
  6 27  1  0
  6 28  1  0
 11  2  1  0
 10  5  1  0
 19 14  1  0
 24 16  1  0
  1 29  1  0
  1 30  1  0
  1 31  1  0
  3 32  1  0
  4 33  1  0
  4 34  1  0
  5 35  1  0
  7 36  1  0
  8 37  1  0
  8 38  1  0
  9 39  1  0
  9 40  1  0
 11 41  1  0
 12 42  1  0
 12 43  1  0
 15 44  1  0
 18 45  1  0
 19 46  1  0
 20 47  1  0
 21 48  1  0
 25 49  1  0
 25 50  1  0
 25 51  1  0
 26 52  1  0
 27 53  1  0
 27 54  1  0
 27 55  1  0
 28 56  1  0
 28 57  1  0
 28 58  1  0
M  END
>  <Name>  (889) 
Mogoltacin

>  <PubChem ID>  (889) 
3693531

>  <CDB ID>  (889) 
CDB0889

>  <Smiles>  (889) 
CC1=CCC2C(C(CCC2(C1COC3=CC4=C(C=C3)C=CC(=O)O4)C)O)(C)C

>  <Chemical class>  (889) 
Sesquiterpenyl coumarins

>  <Natural source>  (889) 
Ferula gummosa

>  <Molecular Formula>  (889) 
C24H30O4

>  <InChI-Key>  (889) 
MCTDXPDDZLFJHR-UHFFFAOYSA-N

>  <Total Molweight>  (889) 
382.498

>  <cLogP>  (889) 
4.3522

>  <cLogS>  (889) 
-4.971

>  <H-Acceptors>  (889) 
4

>  <H-Donors>  (889) 
1

>  <Rotatable Bonds>  (889) 
3

>  <Polar Surface Area>  (889) 
55.76

$$$$
CDB0890
     RDKit          3D

 96100  0  0  0  0  0  0  0  0999 V2000
    1.9964   -0.3616   -5.0611 C   0  0  0  0  0  0  0  0  0  0  0  0
    2.1585   -0.9427   -3.6516 C   0  0  0  0  0  0  0  0  0  0  0  0
    2.6577   -2.3881   -3.7358 C   0  0  0  0  0  0  0  0  0  0  0  0
    3.1172   -2.8946   -2.3642 C   0  0  0  0  0  0  0  0  0  0  0  0
    2.3565   -2.2834   -1.1948 C   0  0  0  0  0  0  0  0  0  0  0  0
    2.9372   -2.0888    0.0183 C   0  0  0  0  0  0  0  0  0  0  0  0
    4.3367   -2.5576    0.3529 C   0  0  0  0  0  0  0  0  0  0  0  0
    2.2945   -1.4023    1.2019 C   0  0  0  0  0  0  0  0  0  0  0  0
    0.9173   -1.9002   -1.5467 C   0  0  0  0  0  0  0  0  0  0  0  0
    0.8769   -0.8321   -2.7348 C   0  0  0  0  0  0  0  0  0  0  0  0
   -0.4251   -0.9706   -3.5621 C   0  0  0  0  0  0  0  0  0  0  0  0
    0.8297    0.6102   -2.1263 C   0  0  0  0  0  0  0  0  0  0  0  0
    1.9833    0.8750   -1.3304 O   0  0  0  0  0  0  0  0  0  0  0  0
    2.0399    2.0726   -0.6761 C   0  0  0  0  0  0  0  0  0  0  0  0
    3.1300    2.2150    0.1827 C   0  0  0  0  0  0  0  0  0  0  0  0
    3.2807    3.3890    0.9161 C   0  0  0  0  0  0  0  0  0  0  0  0
    2.3706    4.4366    0.8100 C   0  0  0  0  0  0  0  0  0  0  0  0
    1.2881    4.2997   -0.0588 C   0  0  0  0  0  0  0  0  0  0  0  0
    1.1264    3.1224   -0.8023 C   0  0  0  0  0  0  0  0  0  0  0  0
    2.5795    5.6356    1.6039 C   0  0  0  0  0  0  0  0  0  0  0  0
    3.6378    5.7078    2.4169 C   0  0  0  0  0  0  0  0  0  0  0  0
    4.6149    4.6116    2.5448 C   0  0  0  0  0  0  0  0  0  0  0  0
    5.5733    4.7160    3.3016 O   0  0  0  0  0  0  0  0  0  0  0  0
    4.3929    3.4778    1.7759 O   0  0  0  0  0  0  0  0  0  0  0  0
    0.0535   -3.1784   -1.7818 C   0  0  0  0  0  0  0  0  0  0  0  0
    0.1659   -4.2795   -0.7210 C   0  0  0  0  0  0  0  0  0  0  0  0
   -0.1650   -3.8649    0.6908 C   0  0  0  0  0  0  0  0  0  0  0  0
    0.4591   -4.2548    1.6702 O   0  0  0  0  0  0  0  0  0  0  0  0
   -1.2836   -3.0886    0.7431 O   0  0  0  0  0  0  0  0  0  0  0  0
   -1.6671   -2.7195    2.0729 C   0  0  0  0  0  0  0  0  0  0  0  0
   -3.0625   -2.0702    2.0888 C   0  0  0  0  0  0  0  0  0  0  0  0
   -3.5196   -1.8734    3.5403 C   0  0  0  0  0  0  0  0  0  0  0  0
   -3.2475   -0.7742    1.2296 C   0  0  0  0  0  0  0  0  0  0  0  0
   -3.6127   -1.1783   -0.2201 C   0  0  0  0  0  0  0  0  0  0  0  0
   -3.6484   -0.0488   -1.1987 C   0  0  0  0  0  0  0  0  0  0  0  0
   -3.1258    1.1662   -0.9721 C   0  0  0  0  0  0  0  0  0  0  0  0
   -2.4268    1.5107    0.3307 C   0  0  0  0  0  0  0  0  0  0  0  0
   -2.0875    0.2664    1.2165 C   0  0  0  0  0  0  0  0  0  0  0  0
   -1.6039    0.7800    2.5853 C   0  0  0  0  0  0  0  0  0  0  0  0
   -2.6308    1.6055    3.3163 C   0  0  0  0  0  0  0  0  0  0  0  0
   -2.6171    1.7209    4.6539 C   0  0  0  0  0  0  0  0  0  0  0  0
   -3.6622    2.3068    2.4771 C   0  0  0  0  0  0  0  0  0  0  0  0
   -3.1359    2.6628    1.0901 C   0  0  0  0  0  0  0  0  0  0  0  0
   -3.1456    2.2253   -2.0428 C   0  0  0  0  0  0  0  0  0  0  0  0
    2.9591   -0.3612   -5.5847 H   0  0  0  0  0  0  0  0  0  0  0  0
    1.2992   -0.9490   -5.6670 H   0  0  0  0  0  0  0  0  0  0  0  0
    1.6456    0.6741   -5.0280 H   0  0  0  0  0  0  0  0  0  0  0  0
    2.9707   -0.3639   -3.1898 H   0  0  0  0  0  0  0  0  0  0  0  0
    1.8755   -3.0376   -4.1442 H   0  0  0  0  0  0  0  0  0  0  0  0
    3.5004   -2.4645   -4.4348 H   0  0  0  0  0  0  0  0  0  0  0  0
    4.1831   -2.6508   -2.2860 H   0  0  0  0  0  0  0  0  0  0  0  0
    3.0318   -3.9869   -2.3356 H   0  0  0  0  0  0  0  0  0  0  0  0
    4.3543   -3.0151    1.3487 H   0  0  0  0  0  0  0  0  0  0  0  0
    4.7177   -3.3185   -0.3326 H   0  0  0  0  0  0  0  0  0  0  0  0
    5.0274   -1.7083    0.3529 H   0  0  0  0  0  0  0  0  0  0  0  0
    2.9622   -0.6232    1.5856 H   0  0  0  0  0  0  0  0  0  0  0  0
    2.1241   -2.1221    2.0086 H   0  0  0  0  0  0  0  0  0  0  0  0
    1.3450   -0.9134    0.9855 H   0  0  0  0  0  0  0  0  0  0  0  0
    0.4358   -1.4166   -0.6937 H   0  0  0  0  0  0  0  0  0  0  0  0
   -0.4464   -1.9023   -4.1360 H   0  0  0  0  0  0  0  0  0  0  0  0
   -0.5456   -0.1464   -4.2740 H   0  0  0  0  0  0  0  0  0  0  0  0
   -1.3079   -0.9447   -2.9153 H   0  0  0  0  0  0  0  0  0  0  0  0
   -0.0696    0.7024   -1.5066 H   0  0  0  0  0  0  0  0  0  0  0  0
    0.7746    1.3474   -2.9369 H   0  0  0  0  0  0  0  0  0  0  0  0
    3.8541    1.4111    0.2814 H   0  0  0  0  0  0  0  0  0  0  0  0
    0.5610    5.1004   -0.1706 H   0  0  0  0  0  0  0  0  0  0  0  0
    0.2756    3.0577   -1.4724 H   0  0  0  0  0  0  0  0  0  0  0  0
    1.8735    6.4547    1.5260 H   0  0  0  0  0  0  0  0  0  0  0  0
    3.8313    6.5821    3.0264 H   0  0  0  0  0  0  0  0  0  0  0  0
   -1.0011   -2.8864   -1.8445 H   0  0  0  0  0  0  0  0  0  0  0  0
    0.2975   -3.6338   -2.7471 H   0  0  0  0  0  0  0  0  0  0  0  0
    1.1775   -4.6999   -0.7212 H   0  0  0  0  0  0  0  0  0  0  0  0
   -0.5124   -5.1010   -0.9812 H   0  0  0  0  0  0  0  0  0  0  0  0
   -1.6995   -3.6211    2.6988 H   0  0  0  0  0  0  0  0  0  0  0  0
   -0.9074   -2.0489    2.4844 H   0  0  0  0  0  0  0  0  0  0  0  0
   -3.7536   -2.8157    1.6687 H   0  0  0  0  0  0  0  0  0  0  0  0
   -4.5003   -1.3891    3.5858 H   0  0  0  0  0  0  0  0  0  0  0  0
   -2.8131   -1.2817    4.1245 H   0  0  0  0  0  0  0  0  0  0  0  0
   -3.6142   -2.8440    4.0408 H   0  0  0  0  0  0  0  0  0  0  0  0
   -4.1453   -0.2757    1.6131 H   0  0  0  0  0  0  0  0  0  0  0  0
   -4.6021   -1.6535   -0.2117 H   0  0  0  0  0  0  0  0  0  0  0  0
   -2.9146   -1.9231   -0.6116 H   0  0  0  0  0  0  0  0  0  0  0  0
   -4.1107   -0.2714   -2.1584 H   0  0  0  0  0  0  0  0  0  0  0  0
   -1.4507    1.9194    0.0336 H   0  0  0  0  0  0  0  0  0  0  0  0
   -1.2270   -0.2299    0.7453 H   0  0  0  0  0  0  0  0  0  0  0  0
   -0.7262    1.4198    2.4149 H   0  0  0  0  0  0  0  0  0  0  0  0
   -1.2469   -0.0407    3.2115 H   0  0  0  0  0  0  0  0  0  0  0  0
   -3.3557    2.3183    5.1802 H   0  0  0  0  0  0  0  0  0  0  0  0
   -1.8666    1.2206    5.2589 H   0  0  0  0  0  0  0  0  0  0  0  0
   -4.5495    1.6722    2.3805 H   0  0  0  0  0  0  0  0  0  0  0  0
   -3.9970    3.2274    2.9715 H   0  0  0  0  0  0  0  0  0  0  0  0
   -2.4144    3.4849    1.2013 H   0  0  0  0  0  0  0  0  0  0  0  0
   -3.9665    3.0813    0.5101 H   0  0  0  0  0  0  0  0  0  0  0  0
   -2.1271    2.5607   -2.2629 H   0  0  0  0  0  0  0  0  0  0  0  0
   -3.7373    3.0907   -1.7318 H   0  0  0  0  0  0  0  0  0  0  0  0
   -3.5758    1.8538   -2.9792 H   0  0  0  0  0  0  0  0  0  0  0  0
  1  2  1  0
  2  3  1  0
  3  4  1  0
  4  5  1  0
  5  6  2  3
  6  7  1  0
  6  8  1  0
  5  9  1  0
  9 10  1  0
 10 11  1  0
 10 12  1  0
 12 13  1  0
 13 14  1  0
 14 15  2  0
 15 16  1  0
 16 17  2  0
 17 18  1  0
 18 19  2  0
 17 20  1  0
 20 21  2  0
 21 22  1  0
 22 23  2  0
 22 24  1  0
  9 25  1  0
 25 26  1  0
 26 27  1  0
 27 28  2  0
 27 29  1  0
 29 30  1  0
 30 31  1  0
 31 32  1  0
 31 33  1  0
 33 34  1  0
 34 35  1  0
 35 36  2  0
 36 37  1  0
 37 38  1  0
 38 39  1  0
 39 40  1  0
 40 41  2  0
 40 42  1  0
 42 43  1  0
 36 44  1  0
 10  2  1  0
 19 14  1  0
 24 16  1  0
 38 33  1  0
 43 37  1  0
  1 45  1  0
  1 46  1  0
  1 47  1  0
  2 48  1  0
  3 49  1  0
  3 50  1  0
  4 51  1  0
  4 52  1  0
  7 53  1  0
  7 54  1  0
  7 55  1  0
  8 56  1  0
  8 57  1  0
  8 58  1  0
  9 59  1  0
 11 60  1  0
 11 61  1  0
 11 62  1  0
 12 63  1  0
 12 64  1  0
 15 65  1  0
 18 66  1  0
 19 67  1  0
 20 68  1  0
 21 69  1  0
 25 70  1  0
 25 71  1  0
 26 72  1  0
 26 73  1  0
 30 74  1  0
 30 75  1  0
 31 76  1  0
 32 77  1  0
 32 78  1  0
 32 79  1  0
 33 80  1  0
 34 81  1  0
 34 82  1  0
 35 83  1  0
 37 84  1  0
 38 85  1  0
 39 86  1  0
 39 87  1  0
 41 88  1  0
 41 89  1  0
 42 90  1  0
 42 91  1  0
 43 92  1  0
 43 93  1  0
 44 94  1  0
 44 95  1  0
 44 96  1  0
M  END
>  <Name>  (890) 
Sanandajin

>  <PubChem ID>  (890) 
101584242

>  <CDB ID>  (890) 
CDB0890

>  <Smiles>  (890) 
CC1CCC(=C(C)C)C(C1(C)COC2=CC3=C(C=C2)C=CC(=O)O3)CCC(=O)OCC(C)C4CC=C(C5C4CC(=C)CC5)C

>  <Chemical class>  (890) 
Sesquiterpenyl coumarins

>  <Natural source>  (890) 
Ferula pseudalliacea

>  <Molecular Formula>  (890) 
C39H52O5

>  <InChI-Key>  (890) 
QTJLADRPIPVHJI-UHFFFAOYSA-N

>  <Total Molweight>  (890) 
600.837

>  <cLogP>  (890) 
9.1059

>  <cLogS>  (890) 
-7.905

>  <H-Acceptors>  (890) 
5

>  <H-Donors>  (890) 
0

>  <Rotatable Bonds>  (890) 
10

>  <Polar Surface Area>  (890) 
61.83

$$$$
CDB0891
     RDKit          3D

 58 60  0  0  0  0  0  0  0  0999 V2000
   -2.9272    0.6143   -2.3351 C   0  0  0  0  0  0  0  0  0  0  0  0
   -3.9570    0.0443   -1.3542 C   0  0  0  0  0  0  0  0  0  0  0  0
   -5.3700    0.3022   -1.9172 C   0  0  0  0  0  0  0  0  0  0  0  0
   -6.4632   -0.3343   -1.0751 C   0  0  0  0  0  0  0  0  0  0  0  0
   -6.3070    0.0316    0.3797 C   0  0  0  0  0  0  0  0  0  0  0  0
   -7.2682    0.3999    1.0546 O   0  0  0  0  0  0  0  0  0  0  0  0
   -4.9320   -0.1721    1.0019 C   0  0  0  0  0  0  0  0  0  0  0  0
   -3.8179    0.5318    0.1395 C   0  0  0  0  0  0  0  0  0  0  0  0
   -4.0403    2.0622    0.2648 C   0  0  0  0  0  0  0  0  0  0  0  0
   -2.4177    0.1519    0.7378 C   0  0  0  0  0  0  0  0  0  0  0  0
   -1.2661    1.1561    0.5519 C   0  0  0  0  0  0  0  0  0  0  0  0
    0.0772    0.5658    0.9497 C   0  0  0  0  0  0  0  0  0  0  0  0
    0.9913    0.2747    0.0010 C   0  0  0  0  0  0  0  0  0  0  0  0
    2.3667   -0.3048    0.1620 C   0  0  0  0  0  0  0  0  0  0  0  0
    3.2819    0.6095   -0.4426 O   0  0  0  0  0  0  0  0  0  0  0  0
    4.6050    0.2642   -0.4381 C   0  0  0  0  0  0  0  0  0  0  0  0
    5.1453   -0.9132    0.0746 C   0  0  0  0  0  0  0  0  0  0  0  0
    6.5246   -1.1155   -0.0001 C   0  0  0  0  0  0  0  0  0  0  0  0
    7.3804   -0.1768   -0.5722 C   0  0  0  0  0  0  0  0  0  0  0  0
    6.8370    0.9994   -1.0848 C   0  0  0  0  0  0  0  0  0  0  0  0
    5.4558    1.2144   -1.0164 C   0  0  0  0  0  0  0  0  0  0  0  0
    8.8062   -0.4544   -0.6151 C   0  0  0  0  0  0  0  0  0  0  0  0
    9.2682   -1.6011   -0.1074 C   0  0  0  0  0  0  0  0  0  0  0  0
    8.3840   -2.6101    0.5021 C   0  0  0  0  0  0  0  0  0  0  0  0
    8.8432   -3.6512    0.9572 O   0  0  0  0  0  0  0  0  0  0  0  0
    7.0264   -2.3215    0.5315 O   0  0  0  0  0  0  0  0  0  0  0  0
    0.2827    0.3855    2.4303 C   0  0  0  0  0  0  0  0  0  0  0  0
   -4.7416   -1.6744    1.2430 C   0  0  0  0  0  0  0  0  0  0  0  0
   -2.9318    1.7073   -2.3526 H   0  0  0  0  0  0  0  0  0  0  0  0
   -3.1366    0.2711   -3.3549 H   0  0  0  0  0  0  0  0  0  0  0  0
   -1.9195    0.2641   -2.0970 H   0  0  0  0  0  0  0  0  0  0  0  0
   -3.8034   -1.0431   -1.3686 H   0  0  0  0  0  0  0  0  0  0  0  0
   -5.4430   -0.0989   -2.9360 H   0  0  0  0  0  0  0  0  0  0  0  0
   -5.5498    1.3807   -2.0021 H   0  0  0  0  0  0  0  0  0  0  0  0
   -7.4439    0.0051   -1.4254 H   0  0  0  0  0  0  0  0  0  0  0  0
   -6.4389   -1.4255   -1.1621 H   0  0  0  0  0  0  0  0  0  0  0  0
   -4.9595    0.3118    1.9886 H   0  0  0  0  0  0  0  0  0  0  0  0
   -3.3433    2.6360   -0.3522 H   0  0  0  0  0  0  0  0  0  0  0  0
   -5.0496    2.3648   -0.0303 H   0  0  0  0  0  0  0  0  0  0  0  0
   -3.9049    2.3878    1.3031 H   0  0  0  0  0  0  0  0  0  0  0  0
   -2.1169   -0.8286    0.3452 H   0  0  0  0  0  0  0  0  0  0  0  0
   -2.5337    0.0196    1.8222 H   0  0  0  0  0  0  0  0  0  0  0  0
   -1.2213    1.5150   -0.4795 H   0  0  0  0  0  0  0  0  0  0  0  0
   -1.4449    2.0485    1.1648 H   0  0  0  0  0  0  0  0  0  0  0  0
    0.7316    0.4638   -1.0405 H   0  0  0  0  0  0  0  0  0  0  0  0
    2.6322   -0.4604    1.2104 H   0  0  0  0  0  0  0  0  0  0  0  0
    2.3932   -1.2651   -0.3671 H   0  0  0  0  0  0  0  0  0  0  0  0
    4.5345   -1.6833    0.5312 H   0  0  0  0  0  0  0  0  0  0  0  0
    7.4698    1.7574   -1.5392 H   0  0  0  0  0  0  0  0  0  0  0  0
    5.0357    2.1347   -1.4173 H   0  0  0  0  0  0  0  0  0  0  0  0
    9.4755    0.2741   -1.0591 H   0  0  0  0  0  0  0  0  0  0  0  0
   10.3232   -1.8467   -0.1193 H   0  0  0  0  0  0  0  0  0  0  0  0
    1.3074    0.1218    2.6989 H   0  0  0  0  0  0  0  0  0  0  0  0
   -0.3719   -0.4039    2.8124 H   0  0  0  0  0  0  0  0  0  0  0  0
    0.0475    1.3153    2.9593 H   0  0  0  0  0  0  0  0  0  0  0  0
   -4.6464   -2.2384    0.3108 H   0  0  0  0  0  0  0  0  0  0  0  0
   -5.6034   -2.0878    1.7799 H   0  0  0  0  0  0  0  0  0  0  0  0
   -3.8560   -1.8758    1.8527 H   0  0  0  0  0  0  0  0  0  0  0  0
  1  2  1  0
  2  3  1  0
  3  4  1  0
  4  5  1  0
  5  6  2  0
  5  7  1  0
  7  8  1  0
  8  9  1  0
  8 10  1  0
 10 11  1  0
 11 12  1  0
 12 13  2  3
 13 14  1  0
 14 15  1  0
 15 16  1  0
 16 17  2  0
 17 18  1  0
 18 19  2  0
 19 20  1  0
 20 21  2  0
 19 22  1  0
 22 23  2  0
 23 24  1  0
 24 25  2  0
 24 26  1  0
 12 27  1  0
  7 28  1  0
  8  2  1  0
 21 16  1  0
 26 18  1  0
  1 29  1  0
  1 30  1  0
  1 31  1  0
  2 32  1  0
  3 33  1  0
  3 34  1  0
  4 35  1  0
  4 36  1  0
  7 37  1  0
  9 38  1  0
  9 39  1  0
  9 40  1  0
 10 41  1  0
 10 42  1  0
 11 43  1  0
 11 44  1  0
 13 45  1  0
 14 46  1  0
 14 47  1  0
 17 48  1  0
 20 49  1  0
 21 50  1  0
 22 51  1  0
 23 52  1  0
 27 53  1  0
 27 54  1  0
 27 55  1  0
 28 56  1  0
 28 57  1  0
 28 58  1  0
M  END
>  <Name>  (891) 
Sinkianone)

>  <PubChem ID>  (891) 
101418599

>  <CDB ID>  (891) 
CDB0891

>  <Smiles>  (891) 
CC1CCC(=O)C(C1(C)CCC(=CCOC2=CC3=C(C=C2)C=CC(=O)O3)C)C

>  <Chemical class>  (891) 
Sesquiterpenyl coumarins

>  <Natural source>  (891) 
Ferula sinkiangensis

>  <Molecular Formula>  (891) 
C24H30O4

>  <InChI-Key>  (891) 
XHCZZRPXSCDUOQ-UHFFFAOYSA-N

>  <Total Molweight>  (891) 
382.498

>  <cLogP>  (891) 
5.5113

>  <cLogS>  (891) 
-5.139

>  <H-Acceptors>  (891) 
4

>  <H-Donors>  (891) 
0

>  <Rotatable Bonds>  (891) 
6

>  <Polar Surface Area>  (891) 
52.6

$$$$
CDB0892
     RDKit          3D

 70 76  0  0  0  0  0  0  0  0999 V2000
   -6.0411    2.9403   -0.6782 C   0  0  0  0  0  0  0  0  0  0  0  0
   -4.7646    3.3736    0.0440 C   0  0  0  0  0  0  0  0  0  0  0  0
   -4.8689    3.3714    1.5765 C   0  0  0  0  0  0  0  0  0  0  0  0
   -4.8719    1.9439    2.1194 C   0  0  0  0  0  0  0  0  0  0  0  0
   -3.6743    1.1617    1.5888 C   0  0  0  0  0  0  0  0  0  0  0  0
   -3.6187    1.2481    0.0499 C   0  0  0  0  0  0  0  0  0  0  0  0
   -3.6377    2.6058   -0.3969 O   0  0  0  0  0  0  0  0  0  0  0  0
   -2.3790    0.6275   -0.3320 O   0  0  0  0  0  0  0  0  0  0  0  0
   -2.3854   -0.0611   -1.5192 C   0  0  0  0  0  0  0  0  0  0  0  0
   -1.5617   -1.2017   -1.5993 C   0  0  0  0  0  0  0  0  0  0  0  0
   -1.5598   -1.9188   -2.8116 C   0  0  0  0  0  0  0  0  0  0  0  0
   -2.3082   -1.5192   -3.9202 C   0  0  0  0  0  0  0  0  0  0  0  0
   -3.0851   -0.3665   -3.8286 C   0  0  0  0  0  0  0  0  0  0  0  0
   -3.1198    0.3616   -2.6358 C   0  0  0  0  0  0  0  0  0  0  0  0
   -2.2451   -2.3009   -5.1449 C   0  0  0  0  0  0  0  0  0  0  0  0
   -1.4819   -3.3965   -5.1934 C   0  0  0  0  0  0  0  0  0  0  0  0
   -0.6920   -3.8582   -4.0406 C   0  0  0  0  0  0  0  0  0  0  0  0
   -0.0164   -4.8783   -4.1100 O   0  0  0  0  0  0  0  0  0  0  0  0
   -0.7627   -3.0894   -2.8897 O   0  0  0  0  0  0  0  0  0  0  0  0
   -0.7107   -1.6281   -0.4711 C   0  0  0  0  0  0  0  0  0  0  0  0
   -1.2389   -2.2610    0.6650 C   0  0  0  0  0  0  0  0  0  0  0  0
   -0.4189   -2.6857    1.7141 C   0  0  0  0  0  0  0  0  0  0  0  0
    0.9609   -2.4826    1.6455 C   0  0  0  0  0  0  0  0  0  0  0  0
    1.5200   -1.8529    0.5328 C   0  0  0  0  0  0  0  0  0  0  0  0
    0.6832   -1.4371   -0.5027 C   0  0  0  0  0  0  0  0  0  0  0  0
    1.2430   -0.7974   -1.6348 O   0  0  0  0  0  0  0  0  0  0  0  0
    2.6058   -0.5626   -1.7691 C   0  0  0  0  0  0  0  0  0  0  0  0
    3.0625   -0.0036   -2.7610 O   0  0  0  0  0  0  0  0  0  0  0  0
    3.4720   -0.9989   -0.6406 C   0  0  0  0  0  0  0  0  0  0  0  0
    2.9513   -1.6240    0.4273 C   0  0  0  0  0  0  0  0  0  0  0  0
    4.8400   -0.7917   -0.7960 O   0  0  0  0  0  0  0  0  0  0  0  0
    5.5113   -0.1742    0.2327 C   0  0  0  0  0  0  0  0  0  0  0  0
    6.6779   -0.7790    0.6927 C   0  0  0  0  0  0  0  0  0  0  0  0
    7.3924   -0.1626    1.7163 C   0  0  0  0  0  0  0  0  0  0  0  0
    6.9797    1.0469    2.2752 C   0  0  0  0  0  0  0  0  0  0  0  0
    5.8206    1.6565    1.7898 C   0  0  0  0  0  0  0  0  0  0  0  0
    5.0886    1.0494    0.7637 C   0  0  0  0  0  0  0  0  0  0  0  0
    7.7756    1.6391    3.3374 C   0  0  0  0  0  0  0  0  0  0  0  0
    8.8791    1.0139    3.7591 C   0  0  0  0  0  0  0  0  0  0  0  0
    9.3309   -0.2676    3.1886 C   0  0  0  0  0  0  0  0  0  0  0  0
   10.3432   -0.8160    3.6083 O   0  0  0  0  0  0  0  0  0  0  0  0
    8.5580   -0.8104    2.1711 O   0  0  0  0  0  0  0  0  0  0  0  0
   -2.5934   -2.4506    0.7612 O   0  0  0  0  0  0  0  0  0  0  0  0
   -3.7991   -0.1962    2.0513 O   0  0  0  0  0  0  0  0  0  0  0  0
   -4.8372    1.9885    3.5567 O   0  0  0  0  0  0  0  0  0  0  0  0
   -6.0379    4.0574    2.0265 O   0  0  0  0  0  0  0  0  0  0  0  0
   -5.8729    2.9161   -1.7604 H   0  0  0  0  0  0  0  0  0  0  0  0
   -6.3608    1.9355   -0.3874 H   0  0  0  0  0  0  0  0  0  0  0  0
   -6.8654    3.6302   -0.4729 H   0  0  0  0  0  0  0  0  0  0  0  0
   -4.5715    4.4060   -0.2730 H   0  0  0  0  0  0  0  0  0  0  0  0
   -4.0060    3.9050    1.9953 H   0  0  0  0  0  0  0  0  0  0  0  0
   -5.8108    1.4351    1.8700 H   0  0  0  0  0  0  0  0  0  0  0  0
   -2.7473    1.5513    2.0274 H   0  0  0  0  0  0  0  0  0  0  0  0
   -4.4649    0.6855   -0.3664 H   0  0  0  0  0  0  0  0  0  0  0  0
   -3.6614   -0.0136   -4.6808 H   0  0  0  0  0  0  0  0  0  0  0  0
   -3.7057    1.2765   -2.6075 H   0  0  0  0  0  0  0  0  0  0  0  0
   -2.8170   -1.9794   -6.0085 H   0  0  0  0  0  0  0  0  0  0  0  0
   -1.4070   -4.0019   -6.0883 H   0  0  0  0  0  0  0  0  0  0  0  0
   -0.8382   -3.1661    2.5940 H   0  0  0  0  0  0  0  0  0  0  0  0
    1.5882   -2.8178    2.4686 H   0  0  0  0  0  0  0  0  0  0  0  0
    3.5883   -1.9798    1.2301 H   0  0  0  0  0  0  0  0  0  0  0  0
    7.0233   -1.7145    0.2638 H   0  0  0  0  0  0  0  0  0  0  0  0
    5.4808    2.6078    2.1924 H   0  0  0  0  0  0  0  0  0  0  0  0
    4.2031    1.5452    0.3738 H   0  0  0  0  0  0  0  0  0  0  0  0
    7.4640    2.5826    3.7718 H   0  0  0  0  0  0  0  0  0  0  0  0
    9.5006    1.4218    4.5470 H   0  0  0  0  0  0  0  0  0  0  0  0
   -2.7629   -3.1493    1.4183 H   0  0  0  0  0  0  0  0  0  0  0  0
   -3.1977   -0.7327    1.4895 H   0  0  0  0  0  0  0  0  0  0  0  0
   -4.6597    1.0662    3.8328 H   0  0  0  0  0  0  0  0  0  0  0  0
   -6.0845    3.8776    2.9876 H   0  0  0  0  0  0  0  0  0  0  0  0
  1  2  1  0
  2  3  1  0
  3  4  1  0
  4  5  1  0
  5  6  1  0
  6  7  1  0
  6  8  1  0
  8  9  1  0
  9 10  2  0
 10 11  1  0
 11 12  2  0
 12 13  1  0
 13 14  2  0
 12 15  1  0
 15 16  2  0
 16 17  1  0
 17 18  2  0
 17 19  1  0
 10 20  1  0
 20 21  2  0
 21 22  1  0
 22 23  2  0
 23 24  1  0
 24 25  2  0
 25 26  1  0
 26 27  1  0
 27 28  2  0
 27 29  1  0
 29 30  2  0
 29 31  1  0
 31 32  1  0
 32 33  2  0
 33 34  1  0
 34 35  2  0
 35 36  1  0
 36 37  2  0
 35 38  1  0
 38 39  2  0
 39 40  1  0
 40 41  2  0
 40 42  1  0
 21 43  1  0
  5 44  1  0
  4 45  1  0
  3 46  1  0
  7  2  1  0
 14  9  1  0
 19 11  1  0
 25 20  1  0
 30 24  1  0
 37 32  1  0
 42 34  1  0
  1 47  1  0
  1 48  1  0
  1 49  1  0
  2 50  1  0
  3 51  1  0
  4 52  1  0
  5 53  1  0
  6 54  1  0
 13 55  1  0
 14 56  1  0
 15 57  1  0
 16 58  1  0
 22 59  1  0
 23 60  1  0
 30 61  1  0
 33 62  1  0
 36 63  1  0
 37 64  1  0
 38 65  1  0
 39 66  1  0
 43 67  1  0
 44 68  1  0
 45 69  1  0
 46 70  1  0
M  END
>  <Name>  (892) 
Edgeworoside A

>  <PubChem ID>  (892) 
45360264

>  <CDB ID>  (892) 
CDB0892

>  <Smiles>  (892) 
CC1C(C(C(C(O1)OC2=C(C3=C(C=C2)C=CC(=O)O3)C4=C(C=CC5=C4OC(=O)C(=C5)OC6=CC7=C(C=C6)C=CC(=O)O7)O)O)O)O

>  <Chemical class>  (892) 
Oligomeric coumarins

>  <Natural source>  (892) 
Edgeworthia chrysantha

>  <Molecular Formula>  (892) 
C33H24O13

>  <InChI-Key>  (892) 
IKMYHRZEPWIULH-UHFFFAOYSA-N

>  <Total Molweight>  (892) 
628.541

>  <cLogP>  (892) 
2.5238

>  <cLogS>  (892) 
-7.153

>  <H-Acceptors>  (892) 
13

>  <H-Donors>  (892) 
4

>  <Rotatable Bonds>  (892) 
5

>  <Polar Surface Area>  (892) 
187.51

$$$$
CDB0893
     RDKit          3D

 70 77  0  0  0  0  0  0  0  0999 V2000
    8.1129   -2.0582   -1.9807 C   0  0  0  0  0  0  0  0  0  0  0  0
    7.2037   -1.9947   -0.7927 C   0  0  0  0  0  0  0  0  0  0  0  0
    6.5674   -0.6621   -0.4317 C   0  0  0  0  0  0  0  0  0  0  0  0
    7.7070   -1.1774    0.2750 O   0  0  0  0  0  0  0  0  0  0  0  0
    5.3185   -0.5469    0.3824 C   0  0  0  0  0  0  0  0  0  0  0  0
    5.1114    0.8384    0.6970 O   0  0  0  0  0  0  0  0  0  0  0  0
    4.0514    0.9711    1.5699 C   0  0  0  0  0  0  0  0  0  0  0  0
    4.2486    0.8161    2.9573 C   0  0  0  0  0  0  0  0  0  0  0  0
    5.3462    0.5115    3.8085 C   0  0  0  0  0  0  0  0  0  0  0  0
    4.8539    0.5078    5.0928 C   0  0  0  0  0  0  0  0  0  0  0  0
    3.5254    0.7932    5.0961 O   0  0  0  0  0  0  0  0  0  0  0  0
    3.1577    0.9879    3.7992 C   0  0  0  0  0  0  0  0  0  0  0  0
    1.8782    1.3162    3.3638 C   0  0  0  0  0  0  0  0  0  0  0  0
    1.7090    1.4887    1.9842 C   0  0  0  0  0  0  0  0  0  0  0  0
    2.7774    1.3402    1.0861 C   0  0  0  0  0  0  0  0  0  0  0  0
    2.5433    1.5952   -0.3325 C   0  0  0  0  0  0  0  0  0  0  0  0
    1.2846    1.8016   -0.7308 C   0  0  0  0  0  0  0  0  0  0  0  0
    0.1176    1.8021    0.2076 C   0  0  0  0  0  0  0  0  0  0  0  0
    0.4424    1.8454    1.6014 O   0  0  0  0  0  0  0  0  0  0  0  0
   -0.6514    0.6165   -0.0618 O   0  0  0  0  0  0  0  0  0  0  0  0
   -1.8522    1.0722   -0.6955 C   0  0  0  0  0  0  0  0  0  0  0  0
   -2.0324    2.4948   -0.1761 C   0  0  0  0  0  0  0  0  0  0  0  0
   -0.6744    2.9583   -0.1173 O   0  0  0  0  0  0  0  0  0  0  0  0
   -2.6466    2.5986    1.2243 C   0  0  0  0  0  0  0  0  0  0  0  0
   -2.7937    3.3977   -1.1442 C   0  0  0  0  0  0  0  0  0  0  0  0
   -2.9854    0.0797   -0.4475 C   0  0  0  0  0  0  0  0  0  0  0  0
   -4.1698    0.5232   -1.1197 O   0  0  0  0  0  0  0  0  0  0  0  0
   -5.0544   -0.5227   -1.2800 C   0  0  0  0  0  0  0  0  0  0  0  0
   -6.1655   -0.6449   -0.4229 C   0  0  0  0  0  0  0  0  0  0  0  0
   -6.4319    0.2881    0.6667 C   0  0  0  0  0  0  0  0  0  0  0  0
   -7.4928    0.1127    1.4597 C   0  0  0  0  0  0  0  0  0  0  0  0
   -8.4333   -1.0051    1.2843 C   0  0  0  0  0  0  0  0  0  0  0  0
   -9.3896   -1.1455    2.0369 O   0  0  0  0  0  0  0  0  0  0  0  0
   -8.1777   -1.8723    0.2324 O   0  0  0  0  0  0  0  0  0  0  0  0
   -7.0619   -1.7000   -0.6204 C   0  0  0  0  0  0  0  0  0  0  0  0
   -6.9287   -2.6376   -1.6483 C   0  0  0  0  0  0  0  0  0  0  0  0
   -5.8403   -2.4495   -2.4925 C   0  0  0  0  0  0  0  0  0  0  0  0
   -4.9068   -1.4278   -2.3546 C   0  0  0  0  0  0  0  0  0  0  0  0
   -3.9917   -1.5994   -3.4303 C   0  0  0  0  0  0  0  0  0  0  0  0
   -4.4160   -2.7038   -4.1321 C   0  0  0  0  0  0  0  0  0  0  0  0
   -5.5351   -3.2269   -3.5679 O   0  0  0  0  0  0  0  0  0  0  0  0
    6.6122   -3.2922   -0.3376 C   0  0  0  0  0  0  0  0  0  0  0  0
    8.9411   -2.7498   -1.7949 H   0  0  0  0  0  0  0  0  0  0  0  0
    8.5421   -1.0795   -2.2205 H   0  0  0  0  0  0  0  0  0  0  0  0
    7.5625   -2.4087   -2.8596 H   0  0  0  0  0  0  0  0  0  0  0  0
    6.7109    0.1754   -1.1027 H   0  0  0  0  0  0  0  0  0  0  0  0
    5.3954   -1.1455    1.2977 H   0  0  0  0  0  0  0  0  0  0  0  0
    4.4729   -0.9131   -0.2121 H   0  0  0  0  0  0  0  0  0  0  0  0
    6.3688    0.3209    3.5136 H   0  0  0  0  0  0  0  0  0  0  0  0
    5.2956    0.3325    6.0639 H   0  0  0  0  0  0  0  0  0  0  0  0
    1.0608    1.4441    4.0626 H   0  0  0  0  0  0  0  0  0  0  0  0
    3.3755    1.6066   -1.0263 H   0  0  0  0  0  0  0  0  0  0  0  0
    1.0729    1.9776   -1.7791 H   0  0  0  0  0  0  0  0  0  0  0  0
   -1.6441    1.1014   -1.7740 H   0  0  0  0  0  0  0  0  0  0  0  0
   -3.7149    2.3641    1.2146 H   0  0  0  0  0  0  0  0  0  0  0  0
   -2.5225    3.6117    1.6240 H   0  0  0  0  0  0  0  0  0  0  0  0
   -2.1599    1.9249    1.9368 H   0  0  0  0  0  0  0  0  0  0  0  0
   -3.8444    3.1089   -1.2378 H   0  0  0  0  0  0  0  0  0  0  0  0
   -2.3371    3.3782   -2.1403 H   0  0  0  0  0  0  0  0  0  0  0  0
   -2.7533    4.4415   -0.8116 H   0  0  0  0  0  0  0  0  0  0  0  0
   -2.6596   -0.9086   -0.7995 H   0  0  0  0  0  0  0  0  0  0  0  0
   -3.1862   -0.0249    0.6258 H   0  0  0  0  0  0  0  0  0  0  0  0
   -5.7648    1.1293    0.8139 H   0  0  0  0  0  0  0  0  0  0  0  0
   -7.7163    0.7922    2.2733 H   0  0  0  0  0  0  0  0  0  0  0  0
   -7.6315   -3.4481   -1.7934 H   0  0  0  0  0  0  0  0  0  0  0  0
   -3.1301   -0.9901   -3.6624 H   0  0  0  0  0  0  0  0  0  0  0  0
   -4.0530   -3.2190   -5.0108 H   0  0  0  0  0  0  0  0  0  0  0  0
    5.8428   -3.6218   -1.0428 H   0  0  0  0  0  0  0  0  0  0  0  0
    6.1563   -3.2223    0.6546 H   0  0  0  0  0  0  0  0  0  0  0  0
    7.3830   -4.0684   -0.2865 H   0  0  0  0  0  0  0  0  0  0  0  0
  1  2  1  0
  2  3  1  0
  3  4  1  0
  3  5  1  0
  5  6  1  0
  6  7  1  0
  7  8  2  0
  8  9  1  0
  9 10  2  0
 10 11  1  0
 11 12  1  0
 12 13  2  0
 13 14  1  0
 14 15  2  0
 15 16  1  0
 16 17  2  0
 17 18  1  0
 18 19  1  0
 18 20  1  0
 20 21  1  0
 21 22  1  0
 22 23  1  0
 22 24  1  0
 22 25  1  0
 21 26  1  0
 26 27  1  0
 27 28  1  0
 28 29  1  0
 29 30  1  0
 30 31  2  0
 31 32  1  0
 32 33  2  0
 32 34  1  0
 34 35  1  0
 35 36  1  0
 36 37  2  0
 37 38  1  0
 38 39  1  0
 39 40  2  0
 40 41  1  0
  2 42  1  0
  4  2  1  0
 15  7  1  0
 12  8  1  0
 19 14  1  0
 23 18  1  0
 38 28  2  0
 35 29  2  0
 41 37  1  0
  1 43  1  0
  1 44  1  0
  1 45  1  0
  3 46  1  0
  5 47  1  0
  5 48  1  0
  9 49  1  0
 10 50  1  0
 13 51  1  0
 16 52  1  0
 17 53  1  0
 21 54  1  0
 24 55  1  0
 24 56  1  0
 24 57  1  0
 25 58  1  0
 25 59  1  0
 25 60  1  0
 26 61  1  0
 26 62  1  0
 30 63  1  0
 31 64  1  0
 36 65  1  0
 39 66  1  0
 40 67  1  0
 42 68  1  0
 42 69  1  0
 42 70  1  0
M  END
>  <Name>  (893) 
Dahuribirin D

>  <PubChem ID>  (893) 
101117858

>  <CDB ID>  (893) 
CDB0893

>  <Smiles>  (893) 
CC1(C(O1)COC2=C3C=COC3=CC4=C2C=CC5(O4)OC(C(O5)(C)C)COC6=C7C=CC(=O)OC7=CC8=C6C=CO8)C

>  <Chemical class>  (893) 
Oligomeric coumarins

>  <Natural source>  (893) 
Angelica dahurica

>  <Molecular Formula>  (893) 
C32H28O10

>  <InChI-Key>  (893) 
ZQFRUXRHVIYIEM-UHFFFAOYSA-N

>  <Total Molweight>  (893) 
572.564

>  <cLogP>  (893) 
5.3103

>  <cLogS>  (893) 
-7.828

>  <H-Acceptors>  (893) 
10

>  <H-Donors>  (893) 
0

>  <Rotatable Bonds>  (893) 
6

>  <Polar Surface Area>  (893) 
111.26

$$$$
CDB0894
     RDKit          3D

 73 79  0  0  0  0  0  0  0  0999 V2000
    2.6678    3.5592    2.3689 C   0  0  0  0  0  0  0  0  0  0  0  0
    1.9276    3.2267    1.0765 C   0  0  0  0  0  0  0  0  0  0  0  0
    2.4144    1.9973    0.3096 C   0  0  0  0  0  0  0  0  0  0  0  0
    1.2466    1.5430   -0.3924 O   0  0  0  0  0  0  0  0  0  0  0  0
    0.1101    2.0624    0.3199 C   0  0  0  0  0  0  0  0  0  0  0  0
    0.5777    2.8767    1.4085 O   0  0  0  0  0  0  0  0  0  0  0  0
   -0.6166    0.9017    0.9287 C   0  0  0  0  0  0  0  0  0  0  0  0
   -1.7803    0.4434    0.4568 C   0  0  0  0  0  0  0  0  0  0  0  0
   -2.3462    1.1021   -0.7177 C   0  0  0  0  0  0  0  0  0  0  0  0
   -1.7606    2.2960   -1.1662 C   0  0  0  0  0  0  0  0  0  0  0  0
   -0.6767    2.8756   -0.5592 O   0  0  0  0  0  0  0  0  0  0  0  0
   -2.2843    3.0106   -2.2497 C   0  0  0  0  0  0  0  0  0  0  0  0
   -3.4095    2.4725   -2.8654 C   0  0  0  0  0  0  0  0  0  0  0  0
   -4.0248    1.2893   -2.4753 C   0  0  0  0  0  0  0  0  0  0  0  0
   -3.4714    0.5776   -1.3907 C   0  0  0  0  0  0  0  0  0  0  0  0
   -4.0636   -0.5804   -0.9275 O   0  0  0  0  0  0  0  0  0  0  0  0
   -3.6913   -1.6919   -1.7535 C   0  0  0  0  0  0  0  0  0  0  0  0
   -4.1820   -3.0022   -1.1160 C   0  0  0  0  0  0  0  0  0  0  0  0
   -5.7102   -3.2633   -1.2455 C   0  0  0  0  0  0  0  0  0  0  0  0
   -6.0865   -4.5732   -0.5367 C   0  0  0  0  0  0  0  0  0  0  0  0
   -6.5787   -2.1248   -0.7098 C   0  0  0  0  0  0  0  0  0  0  0  0
   -6.0003   -3.4384   -2.6456 O   0  0  0  0  0  0  0  0  0  0  0  0
   -3.4854   -4.0865   -1.7585 O   0  0  0  0  0  0  0  0  0  0  0  0
   -5.1338    1.1294   -3.3515 C   0  0  0  0  0  0  0  0  0  0  0  0
   -5.1119    2.2035   -4.2103 C   0  0  0  0  0  0  0  0  0  0  0  0
   -4.0680    3.0232   -3.9228 O   0  0  0  0  0  0  0  0  0  0  0  0
    2.9453    0.8302    1.1546 C   0  0  0  0  0  0  0  0  0  0  0  0
    4.2596    1.1479    1.6322 O   0  0  0  0  0  0  0  0  0  0  0  0
    4.8755    0.0172    2.1312 C   0  0  0  0  0  0  0  0  0  0  0  0
    5.8891   -0.6061    1.3756 C   0  0  0  0  0  0  0  0  0  0  0  0
    6.3032   -0.1249    0.0613 C   0  0  0  0  0  0  0  0  0  0  0  0
    7.2606   -0.7636   -0.6176 C   0  0  0  0  0  0  0  0  0  0  0  0
    7.9369   -1.9601   -0.0921 C   0  0  0  0  0  0  0  0  0  0  0  0
    8.8075   -2.5259   -0.7423 O   0  0  0  0  0  0  0  0  0  0  0  0
    7.5375   -2.3998    1.1615 O   0  0  0  0  0  0  0  0  0  0  0  0
    6.5280   -1.7349    1.8963 C   0  0  0  0  0  0  0  0  0  0  0  0
    6.2268   -2.2749    3.1492 C   0  0  0  0  0  0  0  0  0  0  0  0
    5.2464   -1.6036    3.8717 C   0  0  0  0  0  0  0  0  0  0  0  0
    4.5666   -0.4773    3.4179 C   0  0  0  0  0  0  0  0  0  0  0  0
    3.6876   -0.1137    4.4758 C   0  0  0  0  0  0  0  0  0  0  0  0
    3.8765   -1.0365    5.4782 C   0  0  0  0  0  0  0  0  0  0  0  0
    4.8185   -1.9454    5.1181 O   0  0  0  0  0  0  0  0  0  0  0  0
    1.9212    4.4759    0.1786 C   0  0  0  0  0  0  0  0  0  0  0  0
    3.7294    3.7546    2.1888 H   0  0  0  0  0  0  0  0  0  0  0  0
    2.2335    4.4473    2.8436 H   0  0  0  0  0  0  0  0  0  0  0  0
    2.5706    2.7575    3.1074 H   0  0  0  0  0  0  0  0  0  0  0  0
    3.1830    2.2707   -0.4232 H   0  0  0  0  0  0  0  0  0  0  0  0
   -0.1612    0.4204    1.7854 H   0  0  0  0  0  0  0  0  0  0  0  0
   -2.2926   -0.3991    0.9059 H   0  0  0  0  0  0  0  0  0  0  0  0
   -1.8459    3.9408   -2.5893 H   0  0  0  0  0  0  0  0  0  0  0  0
   -2.5977   -1.7354   -1.8517 H   0  0  0  0  0  0  0  0  0  0  0  0
   -4.1054   -1.5852   -2.7634 H   0  0  0  0  0  0  0  0  0  0  0  0
   -3.9003   -3.0094   -0.0562 H   0  0  0  0  0  0  0  0  0  0  0  0
   -5.5605   -5.4298   -0.9723 H   0  0  0  0  0  0  0  0  0  0  0  0
   -7.1558   -4.7864   -0.6512 H   0  0  0  0  0  0  0  0  0  0  0  0
   -5.8572   -4.5289    0.5329 H   0  0  0  0  0  0  0  0  0  0  0  0
   -6.3205   -1.8735    0.3237 H   0  0  0  0  0  0  0  0  0  0  0  0
   -7.6400   -2.3993   -0.7385 H   0  0  0  0  0  0  0  0  0  0  0  0
   -6.4938   -1.2282   -1.3314 H   0  0  0  0  0  0  0  0  0  0  0  0
   -6.9516   -3.6342   -2.7252 H   0  0  0  0  0  0  0  0  0  0  0  0
   -3.9739   -4.2397   -2.5932 H   0  0  0  0  0  0  0  0  0  0  0  0
   -5.8567    0.3265   -3.3536 H   0  0  0  0  0  0  0  0  0  0  0  0
   -5.7362    2.5160   -5.0359 H   0  0  0  0  0  0  0  0  0  0  0  0
    2.9742   -0.0723    0.5281 H   0  0  0  0  0  0  0  0  0  0  0  0
    2.2722    0.6228    1.9941 H   0  0  0  0  0  0  0  0  0  0  0  0
    5.8277    0.7589   -0.3499 H   0  0  0  0  0  0  0  0  0  0  0  0
    7.5892   -0.4279   -1.5936 H   0  0  0  0  0  0  0  0  0  0  0  0
    6.7303   -3.1481    3.5442 H   0  0  0  0  0  0  0  0  0  0  0  0
    3.0021    0.7207    4.5046 H   0  0  0  0  0  0  0  0  0  0  0  0
    3.4447   -1.1763    6.4597 H   0  0  0  0  0  0  0  0  0  0  0  0
    1.3630    5.2910    0.6530 H   0  0  0  0  0  0  0  0  0  0  0  0
    2.9410    4.8212   -0.0225 H   0  0  0  0  0  0  0  0  0  0  0  0
    1.4398    4.2913   -0.7869 H   0  0  0  0  0  0  0  0  0  0  0  0
  1  2  1  0
  2  3  1  0
  3  4  1  0
  4  5  1  0
  5  6  1  0
  5  7  1  0
  7  8  2  0
  8  9  1  0
  9 10  2  0
 10 11  1  0
 10 12  1  0
 12 13  2  0
 13 14  1  0
 14 15  2  0
 15 16  1  0
 16 17  1  0
 17 18  1  0
 18 19  1  0
 19 20  1  0
 19 21  1  0
 19 22  1  0
 18 23  1  0
 14 24  1  0
 24 25  2  0
 25 26  1  0
  3 27  1  0
 27 28  1  0
 28 29  1  0
 29 30  1  0
 30 31  1  0
 31 32  2  0
 32 33  1  0
 33 34  2  0
 33 35  1  0
 35 36  1  0
 36 37  1  0
 37 38  2  0
 38 39  1  0
 39 40  1  0
 40 41  2  0
 41 42  1  0
  2 43  1  0
  6  2  1  0
 11  5  1  0
 15  9  1  0
 26 13  1  0
 39 29  2  0
 36 30  2  0
 42 38  1  0
  1 44  1  0
  1 45  1  0
  1 46  1  0
  3 47  1  0
  7 48  1  0
  8 49  1  0
 12 50  1  0
 17 51  1  0
 17 52  1  0
 18 53  1  0
 20 54  1  0
 20 55  1  0
 20 56  1  0
 21 57  1  0
 21 58  1  0
 21 59  1  0
 22 60  1  0
 23 61  1  0
 24 62  1  0
 25 63  1  0
 27 64  1  0
 27 65  1  0
 31 66  1  0
 32 67  1  0
 37 68  1  0
 40 69  1  0
 41 70  1  0
 43 71  1  0
 43 72  1  0
 43 73  1  0
M  END
>  <Name>  (894) 
Dahuribirin E

>  <PubChem ID>  (894) 
101117859

>  <CDB ID>  (894) 
CDB0894

>  <Smiles>  (894) 
CC1(C(OC2(O1)C=CC3=C(O2)C=C4C(=C3OCC(C(C)(C)O)O)C=CO4)COC5=C6C=CC(=O)OC6=CC7=C5C=CO7)C

>  <Chemical class>  (894) 
Oligomeric coumarins

>  <Natural source>  (894) 
Angelica dahurica

>  <Molecular Formula>  (894) 
C32H30O11

>  <InChI-Key>  (894) 
JYGBUNBAQUBPQH-UHFFFAOYSA-N

>  <Total Molweight>  (894) 
590.579

>  <cLogP>  (894) 
4.7239

>  <cLogS>  (894) 
-7.347

>  <H-Acceptors>  (894) 
11

>  <H-Donors>  (894) 
2

>  <Rotatable Bonds>  (894) 
7

>  <Polar Surface Area>  (894) 
139.19

$$$$
CDB0895
     RDKit          3D

 74 81  0  0  0  0  0  0  0  0999 V2000
   -5.1851    3.6191    0.9652 C   0  0  0  0  0  0  0  0  0  0  0  0
   -4.6264    3.3332   -0.3940 C   0  0  0  0  0  0  0  0  0  0  0  0
   -3.3130    2.5750   -0.4964 C   0  0  0  0  0  0  0  0  0  0  0  0
   -4.5810    1.9354   -0.7153 O   0  0  0  0  0  0  0  0  0  0  0  0
   -2.4230    2.6431   -1.6974 C   0  0  0  0  0  0  0  0  0  0  0  0
   -1.3092    1.7491   -1.5476 O   0  0  0  0  0  0  0  0  0  0  0  0
   -1.6341    0.4676   -1.9384 C   0  0  0  0  0  0  0  0  0  0  0  0
   -1.6868   -0.5590   -0.9829 C   0  0  0  0  0  0  0  0  0  0  0  0
   -1.9762   -1.8843   -1.3497 C   0  0  0  0  0  0  0  0  0  0  0  0
   -2.1618   -2.2120   -2.7110 C   0  0  0  0  0  0  0  0  0  0  0  0
   -2.0991   -1.1965   -3.6880 C   0  0  0  0  0  0  0  0  0  0  0  0
   -1.8248    0.1023   -3.2737 C   0  0  0  0  0  0  0  0  0  0  0  0
   -1.7759    0.9375   -4.3529 O   0  0  0  0  0  0  0  0  0  0  0  0
   -2.0418    0.1862   -5.4519 C   0  0  0  0  0  0  0  0  0  0  0  0
   -2.2539   -1.1259   -5.1003 C   0  0  0  0  0  0  0  0  0  0  0  0
   -2.4600   -3.5113   -3.0701 O   0  0  0  0  0  0  0  0  0  0  0  0
   -1.2750   -4.1784   -3.5080 C   0  0  0  0  0  0  0  0  0  0  0  0
   -2.0919   -2.8932   -0.2963 C   0  0  0  0  0  0  0  0  0  0  0  0
   -1.6616   -2.5640    0.9264 C   0  0  0  0  0  0  0  0  0  0  0  0
   -1.1090   -1.2086    1.2404 C   0  0  0  0  0  0  0  0  0  0  0  0
   -1.5056   -0.1835    0.3270 O   0  0  0  0  0  0  0  0  0  0  0  0
    0.3235   -1.3111    1.2566 O   0  0  0  0  0  0  0  0  0  0  0  0
    0.7110   -1.1436    2.6279 C   0  0  0  0  0  0  0  0  0  0  0  0
   -0.4206   -0.3194    3.2278 C   0  0  0  0  0  0  0  0  0  0  0  0
   -1.5684   -0.8566    2.5584 O   0  0  0  0  0  0  0  0  0  0  0  0
   -0.5775   -0.5614    4.7269 C   0  0  0  0  0  0  0  0  0  0  0  0
   -0.3412    1.1874    2.9518 C   0  0  0  0  0  0  0  0  0  0  0  0
    2.1062   -0.5272    2.7094 C   0  0  0  0  0  0  0  0  0  0  0  0
    3.0592   -1.5200    2.2845 O   0  0  0  0  0  0  0  0  0  0  0  0
    4.2126   -0.9119    1.8368 C   0  0  0  0  0  0  0  0  0  0  0  0
    4.4127   -0.7163    0.4554 C   0  0  0  0  0  0  0  0  0  0  0  0
    3.4287   -1.1047   -0.5497 C   0  0  0  0  0  0  0  0  0  0  0  0
    3.6617   -0.8757   -1.8451 C   0  0  0  0  0  0  0  0  0  0  0  0
    4.9008   -0.2432   -2.3227 C   0  0  0  0  0  0  0  0  0  0  0  0
    5.0905   -0.0532   -3.5182 O   0  0  0  0  0  0  0  0  0  0  0  0
    5.8298    0.1146   -1.3555 O   0  0  0  0  0  0  0  0  0  0  0  0
    5.5977   -0.1160    0.0209 C   0  0  0  0  0  0  0  0  0  0  0  0
    6.6142    0.2899    0.8904 C   0  0  0  0  0  0  0  0  0  0  0  0
    6.3815    0.0477    2.2401 C   0  0  0  0  0  0  0  0  0  0  0  0
    5.2273   -0.5422    2.7449 C   0  0  0  0  0  0  0  0  0  0  0  0
    5.4190   -0.6144    4.1521 C   0  0  0  0  0  0  0  0  0  0  0  0
    6.6524   -0.0615    4.4073 C   0  0  0  0  0  0  0  0  0  0  0  0
    7.2413    0.3459    3.2532 O   0  0  0  0  0  0  0  0  0  0  0  0
   -5.1192    4.1967   -1.5125 C   0  0  0  0  0  0  0  0  0  0  0  0
   -4.8129    2.9150    1.7172 H   0  0  0  0  0  0  0  0  0  0  0  0
   -4.9073    4.6290    1.2834 H   0  0  0  0  0  0  0  0  0  0  0  0
   -6.2778    3.5499    0.9545 H   0  0  0  0  0  0  0  0  0  0  0  0
   -2.7733    2.3576    0.4167 H   0  0  0  0  0  0  0  0  0  0  0  0
   -2.9658    2.4744   -2.6345 H   0  0  0  0  0  0  0  0  0  0  0  0
   -1.9994    3.6516   -1.7570 H   0  0  0  0  0  0  0  0  0  0  0  0
   -2.0455    0.7201   -6.3920 H   0  0  0  0  0  0  0  0  0  0  0  0
   -2.4874   -1.9381   -5.7738 H   0  0  0  0  0  0  0  0  0  0  0  0
   -0.9081   -3.7569   -4.4494 H   0  0  0  0  0  0  0  0  0  0  0  0
   -1.5289   -5.2279   -3.6845 H   0  0  0  0  0  0  0  0  0  0  0  0
   -0.4896   -4.1442   -2.7446 H   0  0  0  0  0  0  0  0  0  0  0  0
   -2.4891   -3.8748   -0.5261 H   0  0  0  0  0  0  0  0  0  0  0  0
   -1.6912   -3.2906    1.7293 H   0  0  0  0  0  0  0  0  0  0  0  0
    0.7282   -2.1549    3.0556 H   0  0  0  0  0  0  0  0  0  0  0  0
    0.2952   -0.2117    5.2872 H   0  0  0  0  0  0  0  0  0  0  0  0
   -1.4666   -0.0492    5.1121 H   0  0  0  0  0  0  0  0  0  0  0  0
   -0.7232   -1.6268    4.9392 H   0  0  0  0  0  0  0  0  0  0  0  0
   -1.2860    1.6762    3.2165 H   0  0  0  0  0  0  0  0  0  0  0  0
   -0.1699    1.4031    1.8923 H   0  0  0  0  0  0  0  0  0  0  0  0
    0.4624    1.6605    3.5256 H   0  0  0  0  0  0  0  0  0  0  0  0
    2.1622    0.3590    2.0641 H   0  0  0  0  0  0  0  0  0  0  0  0
    2.3387   -0.2463    3.7423 H   0  0  0  0  0  0  0  0  0  0  0  0
    2.5067   -1.5787   -0.2291 H   0  0  0  0  0  0  0  0  0  0  0  0
    2.9440   -1.1486   -2.6090 H   0  0  0  0  0  0  0  0  0  0  0  0
    7.5292    0.7517    0.5420 H   0  0  0  0  0  0  0  0  0  0  0  0
    4.7404   -1.0252    4.8856 H   0  0  0  0  0  0  0  0  0  0  0  0
    7.2278    0.1048    5.3075 H   0  0  0  0  0  0  0  0  0  0  0  0
   -6.2098    4.2888   -1.4744 H   0  0  0  0  0  0  0  0  0  0  0  0
   -4.8617    3.7966   -2.4978 H   0  0  0  0  0  0  0  0  0  0  0  0
   -4.6893    5.1999   -1.4299 H   0  0  0  0  0  0  0  0  0  0  0  0
  1  2  1  0
  2  3  1  0
  3  4  1  0
  3  5  1  0
  5  6  1  0
  6  7  1  0
  7  8  1  0
  8  9  2  0
  9 10  1  0
 10 11  2  0
 11 12  1  0
 12 13  1  0
 13 14  1  0
 14 15  2  0
 10 16  1  0
 16 17  1  0
  9 18  1  0
 18 19  2  0
 19 20  1  0
 20 21  1  0
 20 22  1  0
 22 23  1  0
 23 24  1  0
 24 25  1  0
 24 26  1  0
 24 27  1  0
 23 28  1  0
 28 29  1  0
 29 30  1  0
 30 31  1  0
 31 32  1  0
 32 33  2  0
 33 34  1  0
 34 35  2  0
 34 36  1  0
 36 37  1  0
 37 38  1  0
 38 39  2  0
 39 40  1  0
 40 41  1  0
 41 42  2  0
 42 43  1  0
  2 44  1  0
  4  2  1  0
 12  7  2  0
 21  8  1  0
 15 11  1  0
 25 20  1  0
 40 30  2  0
 37 31  2  0
 43 39  1  0
  1 45  1  0
  1 46  1  0
  1 47  1  0
  3 48  1  0
  5 49  1  0
  5 50  1  0
 14 51  1  0
 15 52  1  0
 17 53  1  0
 17 54  1  0
 17 55  1  0
 18 56  1  0
 19 57  1  0
 23 58  1  0
 26 59  1  0
 26 60  1  0
 26 61  1  0
 27 62  1  0
 27 63  1  0
 27 64  1  0
 28 65  1  0
 28 66  1  0
 32 67  1  0
 33 68  1  0
 38 69  1  0
 41 70  1  0
 42 71  1  0
 44 72  1  0
 44 73  1  0
 44 74  1  0
M  END
>  <Name>  (895) 
Dahuribirin C

>  <PubChem ID>  (895) 
10974049

>  <CDB ID>  (895) 
CDB0895

>  <Smiles>  (895) 
CC1(C(O1)COC2=C3C(=C(C4=C2OC=C4)OC)C=CC5(O3)OC(C(O5)(C)C)COC6=C7C=CC(=O)OC7=CC8=C6C=CO8)C

>  <Chemical class>  (895) 
Oligomeric coumarins

>  <Natural source>  (895) 
Angelica dahurica

>  <Molecular Formula>  (895) 
C33H30O11

>  <InChI-Key>  (895) 
RRTKMJLCDXUEAE-UHFFFAOYSA-N

>  <Total Molweight>  (895) 
602.59

>  <cLogP>  (895) 
5.2403

>  <cLogS>  (895) 
-7.846

>  <H-Acceptors>  (895) 
11

>  <H-Donors>  (895) 
0

>  <Rotatable Bonds>  (895) 
7

>  <Polar Surface Area>  (895) 
120.49

$$$$
CDB0896
     RDKit          3D

 81 86  0  0  0  0  0  0  0  0999 V2000
   -1.9509   -1.0197    3.7697 C   0  0  0  0  0  0  0  0  0  0  0  0
   -1.1951    0.1449    3.0991 C   0  0  0  0  0  0  0  0  0  0  0  0
   -1.3945    1.3830    3.9968 C   0  0  0  0  0  0  0  0  0  0  0  0
   -1.7929    0.4139    1.6793 C   0  0  0  0  0  0  0  0  0  0  0  0
   -1.7227   -0.7904    0.7180 C   0  0  0  0  0  0  0  0  0  0  0  0
   -2.8686   -1.6377    0.8907 O   0  0  0  0  0  0  0  0  0  0  0  0
   -3.7588   -1.5052   -0.1418 C   0  0  0  0  0  0  0  0  0  0  0  0
   -4.9677   -0.8306    0.0291 C   0  0  0  0  0  0  0  0  0  0  0  0
   -5.9332   -0.7021   -0.9648 C   0  0  0  0  0  0  0  0  0  0  0  0
   -5.6788   -1.2829   -2.2271 C   0  0  0  0  0  0  0  0  0  0  0  0
   -4.4933   -2.0207   -2.4277 C   0  0  0  0  0  0  0  0  0  0  0  0
   -3.5602   -2.1114   -1.3901 C   0  0  0  0  0  0  0  0  0  0  0  0
   -2.3522   -2.8288   -1.5754 O   0  0  0  0  0  0  0  0  0  0  0  0
   -2.0392   -3.4468   -2.7755 C   0  0  0  0  0  0  0  0  0  0  0  0
   -0.9750   -4.0248   -2.9621 O   0  0  0  0  0  0  0  0  0  0  0  0
   -3.0521   -3.3694   -3.8385 C   0  0  0  0  0  0  0  0  0  0  0  0
   -4.2001   -2.7040   -3.6842 C   0  0  0  0  0  0  0  0  0  0  0  0
   -6.6140   -1.2138   -3.2402 O   0  0  0  0  0  0  0  0  0  0  0  0
   -6.5519    0.0608   -3.8825 C   0  0  0  0  0  0  0  0  0  0  0  0
   -6.9981    0.0309   -0.3709 C   0  0  0  0  0  0  0  0  0  0  0  0
   -6.6104    0.3111    0.9184 C   0  0  0  0  0  0  0  0  0  0  0  0
   -5.3782   -0.2010    1.1676 O   0  0  0  0  0  0  0  0  0  0  0  0
   -1.1462    1.5498    1.0837 O   0  0  0  0  0  0  0  0  0  0  0  0
    0.1831   -0.2940    3.0945 O   0  0  0  0  0  0  0  0  0  0  0  0
    1.2191    0.6221    2.6625 C   0  0  0  0  0  0  0  0  0  0  0  0
    1.6892    0.2121    1.2501 C   0  0  0  0  0  0  0  0  0  0  0  0
    2.4279    1.2744    0.6443 O   0  0  0  0  0  0  0  0  0  0  0  0
    3.0822    0.9597   -0.5338 C   0  0  0  0  0  0  0  0  0  0  0  0
    2.8257   -0.1150   -1.3976 C   0  0  0  0  0  0  0  0  0  0  0  0
    3.5369   -0.3519   -2.5743 C   0  0  0  0  0  0  0  0  0  0  0  0
    4.5827    0.5302   -2.9239 C   0  0  0  0  0  0  0  0  0  0  0  0
    4.8392    1.6572   -2.1208 C   0  0  0  0  0  0  0  0  0  0  0  0
    4.0953    1.8412   -0.9519 C   0  0  0  0  0  0  0  0  0  0  0  0
    4.3547    2.9602   -0.1148 O   0  0  0  0  0  0  0  0  0  0  0  0
    5.3233    3.9027   -0.4153 C   0  0  0  0  0  0  0  0  0  0  0  0
    5.5538    4.8694    0.3012 O   0  0  0  0  0  0  0  0  0  0  0  0
    6.0785    3.6916   -1.6594 C   0  0  0  0  0  0  0  0  0  0  0  0
    5.8583    2.6459   -2.4608 C   0  0  0  0  0  0  0  0  0  0  0  0
    5.2993    0.3493   -4.0903 O   0  0  0  0  0  0  0  0  0  0  0  0
    6.3054   -0.6469   -3.8955 C   0  0  0  0  0  0  0  0  0  0  0  0
    2.9585   -1.5162   -3.1543 C   0  0  0  0  0  0  0  0  0  0  0  0
    1.9552   -1.9184   -2.3073 C   0  0  0  0  0  0  0  0  0  0  0  0
    1.8640   -1.0755   -1.2496 O   0  0  0  0  0  0  0  0  0  0  0  0
    2.3737    0.5112    3.7173 C   0  0  0  0  0  0  0  0  0  0  0  0
    1.8985    0.9597    5.1060 C   0  0  0  0  0  0  0  0  0  0  0  0
    3.6304    1.3000    3.3450 C   0  0  0  0  0  0  0  0  0  0  0  0
    2.7542   -0.8708    3.8490 O   0  0  0  0  0  0  0  0  0  0  0  0
   -1.7525   -1.9708    3.2639 H   0  0  0  0  0  0  0  0  0  0  0  0
   -1.6093   -1.1584    4.8027 H   0  0  0  0  0  0  0  0  0  0  0  0
   -3.0321   -0.8471    3.7875 H   0  0  0  0  0  0  0  0  0  0  0  0
   -0.9950    1.2112    5.0011 H   0  0  0  0  0  0  0  0  0  0  0  0
   -0.8931    2.2726    3.6058 H   0  0  0  0  0  0  0  0  0  0  0  0
   -2.4581    1.6278    4.0972 H   0  0  0  0  0  0  0  0  0  0  0  0
   -2.8426    0.7042    1.8096 H   0  0  0  0  0  0  0  0  0  0  0  0
   -0.8447   -1.4101    0.9258 H   0  0  0  0  0  0  0  0  0  0  0  0
   -1.6130   -0.4446   -0.3190 H   0  0  0  0  0  0  0  0  0  0  0  0
   -2.8114   -3.8864   -4.7594 H   0  0  0  0  0  0  0  0  0  0  0  0
   -4.9334   -2.6703   -4.4835 H   0  0  0  0  0  0  0  0  0  0  0  0
   -7.2018    0.0232   -4.7619 H   0  0  0  0  0  0  0  0  0  0  0  0
   -5.5354    0.2890   -4.2224 H   0  0  0  0  0  0  0  0  0  0  0  0
   -6.9202    0.8542   -3.2246 H   0  0  0  0  0  0  0  0  0  0  0  0
   -7.9354    0.3126   -0.8295 H   0  0  0  0  0  0  0  0  0  0  0  0
   -7.0743    0.8336    1.7439 H   0  0  0  0  0  0  0  0  0  0  0  0
   -1.6383    1.7789    0.2763 H   0  0  0  0  0  0  0  0  0  0  0  0
    0.8721    1.6591    2.6444 H   0  0  0  0  0  0  0  0  0  0  0  0
    0.8195    0.0079    0.6274 H   0  0  0  0  0  0  0  0  0  0  0  0
    2.2887   -0.7050    1.3075 H   0  0  0  0  0  0  0  0  0  0  0  0
    6.8261    4.4407   -1.8898 H   0  0  0  0  0  0  0  0  0  0  0  0
    6.4256    2.5207   -3.3771 H   0  0  0  0  0  0  0  0  0  0  0  0
    5.8617   -1.6400   -3.7733 H   0  0  0  0  0  0  0  0  0  0  0  0
    6.9457   -0.4076   -3.0390 H   0  0  0  0  0  0  0  0  0  0  0  0
    6.9330   -0.6661   -4.7915 H   0  0  0  0  0  0  0  0  0  0  0  0
    3.2426   -1.9996   -4.0782 H   0  0  0  0  0  0  0  0  0  0  0  0
    1.2505   -2.7395   -2.3164 H   0  0  0  0  0  0  0  0  0  0  0  0
    2.7105    0.8845    5.8391 H   0  0  0  0  0  0  0  0  0  0  0  0
    1.1014    0.3112    5.4841 H   0  0  0  0  0  0  0  0  0  0  0  0
    1.5423    1.9945    5.0938 H   0  0  0  0  0  0  0  0  0  0  0  0
    4.1427    0.8592    2.4839 H   0  0  0  0  0  0  0  0  0  0  0  0
    4.3635    1.2718    4.1601 H   0  0  0  0  0  0  0  0  0  0  0  0
    3.3996    2.3484    3.1311 H   0  0  0  0  0  0  0  0  0  0  0  0
    1.9102   -1.3629    3.8982 H   0  0  0  0  0  0  0  0  0  0  0  0
  1  2  1  0
  2  3  1  0
  2  4  1  0
  4  5  1  0
  5  6  1  0
  6  7  1  0
  7  8  2  0
  8  9  1  0
  9 10  2  0
 10 11  1  0
 11 12  2  0
 12 13  1  0
 13 14  1  0
 14 15  2  0
 14 16  1  0
 16 17  2  0
 10 18  1  0
 18 19  1  0
  9 20  1  0
 20 21  2  0
 21 22  1  0
  4 23  1  0
  2 24  1  0
 24 25  1  0
 25 26  1  0
 26 27  1  0
 27 28  1  0
 28 29  2  0
 29 30  1  0
 30 31  2  0
 31 32  1  0
 32 33  2  0
 33 34  1  0
 34 35  1  0
 35 36  2  0
 35 37  1  0
 37 38  2  0
 31 39  1  0
 39 40  1  0
 30 41  1  0
 41 42  2  0
 42 43  1  0
 25 44  1  0
 44 45  1  0
 44 46  1  0
 44 47  1  0
 12  7  1  0
 22  8  1  0
 17 11  1  0
 33 28  1  0
 43 29  1  0
 38 32  1  0
  1 48  1  0
  1 49  1  0
  1 50  1  0
  3 51  1  0
  3 52  1  0
  3 53  1  0
  4 54  1  0
  5 55  1  0
  5 56  1  0
 16 57  1  0
 17 58  1  0
 19 59  1  0
 19 60  1  0
 19 61  1  0
 20 62  1  0
 21 63  1  0
 23 64  1  0
 25 65  1  0
 26 66  1  0
 26 67  1  0
 37 68  1  0
 38 69  1  0
 40 70  1  0
 40 71  1  0
 40 72  1  0
 41 73  1  0
 42 74  1  0
 45 75  1  0
 45 76  1  0
 45 77  1  0
 46 78  1  0
 46 79  1  0
 46 80  1  0
 47 81  1  0
M  END
>  <Name>  (896) 
Dahuribirin G

>  <PubChem ID>  (896) 
10985146

>  <CDB ID>  (896) 
CDB0896

>  <Smiles>  (896) 
CC(C)(C(COC1=C2C(=C(C3=C1OC(=O)C=C3)OC)C=CO2)O)OC(COC4=C5C(=C(C6=C4OC(=O)C=C6)OC)C=CO5)C(C)(C)O

>  <Chemical class>  (896) 
Oligomeric coumarins

>  <Natural source>  (896) 
Angelica dahurica

>  <Molecular Formula>  (896) 
C34H34O13

>  <InChI-Key>  (896) 
XHOJVUSXFWDYQT-UHFFFAOYSA-N

>  <Total Molweight>  (896) 
650.631

>  <cLogP>  (896) 
3.7059

>  <cLogS>  (896) 
-7.383

>  <H-Acceptors>  (896) 
13

>  <H-Donors>  (896) 
2

>  <Rotatable Bonds>  (896) 
12

>  <Polar Surface Area>  (896) 
165.49

$$$$
CDB0897
     RDKit          3D

 73 79  0  0  0  0  0  0  0  0999 V2000
   -3.2400    4.2510    0.4940 C   0  0  0  0  0  0  0  0  0  0  0  0
   -4.0369    3.0053    0.2059 C   0  0  0  0  0  0  0  0  0  0  0  0
   -3.4810    1.7871    0.3606 C   0  0  0  0  0  0  0  0  0  0  0  0
   -4.1045    0.4377    0.1478 C   0  0  0  0  0  0  0  0  0  0  0  0
   -3.8376   -0.3404    1.3207 O   0  0  0  0  0  0  0  0  0  0  0  0
   -4.1580   -1.6588    1.0861 C   0  0  0  0  0  0  0  0  0  0  0  0
   -5.4644   -2.1420    1.1835 C   0  0  0  0  0  0  0  0  0  0  0  0
   -5.8075   -3.4768    0.9949 C   0  0  0  0  0  0  0  0  0  0  0  0
   -4.7880   -4.4006    0.6965 C   0  0  0  0  0  0  0  0  0  0  0  0
   -3.4602   -3.9457    0.5970 C   0  0  0  0  0  0  0  0  0  0  0  0
   -3.1522   -2.5911    0.7931 C   0  0  0  0  0  0  0  0  0  0  0  0
   -1.8681   -2.1128    0.7431 O   0  0  0  0  0  0  0  0  0  0  0  0
   -0.8915   -2.9101    0.0684 C   0  0  0  0  0  0  0  0  0  0  0  0
   -1.1810   -4.3808    0.0379 C   0  0  0  0  0  0  0  0  0  0  0  0
   -2.3895   -4.8891    0.3004 C   0  0  0  0  0  0  0  0  0  0  0  0
    0.3653   -2.7418    0.7442 O   0  0  0  0  0  0  0  0  0  0  0  0
    1.2832   -2.2684   -0.2497 C   0  0  0  0  0  0  0  0  0  0  0  0
    0.3990   -1.6225   -1.3139 C   0  0  0  0  0  0  0  0  0  0  0  0
   -0.7582   -2.4727   -1.2932 O   0  0  0  0  0  0  0  0  0  0  0  0
   -0.0381   -0.1848   -1.0084 C   0  0  0  0  0  0  0  0  0  0  0  0
    0.9980   -1.6925   -2.7175 C   0  0  0  0  0  0  0  0  0  0  0  0
    2.3473   -1.3865    0.4022 C   0  0  0  0  0  0  0  0  0  0  0  0
    3.2481   -0.9151   -0.5956 O   0  0  0  0  0  0  0  0  0  0  0  0
    4.0830    0.1220   -0.2240 C   0  0  0  0  0  0  0  0  0  0  0  0
    4.4608    0.4927    1.0734 C   0  0  0  0  0  0  0  0  0  0  0  0
    5.3275    1.5481    1.3582 C   0  0  0  0  0  0  0  0  0  0  0  0
    5.8560    2.3004    0.2865 C   0  0  0  0  0  0  0  0  0  0  0  0
    5.5526    1.9313   -1.0371 C   0  0  0  0  0  0  0  0  0  0  0  0
    4.6760    0.8657   -1.2601 C   0  0  0  0  0  0  0  0  0  0  0  0
    4.3350    0.4941   -2.5883 O   0  0  0  0  0  0  0  0  0  0  0  0
    4.8497    1.1457   -3.6968 C   0  0  0  0  0  0  0  0  0  0  0  0
    4.5497    0.8375   -4.8437 O   0  0  0  0  0  0  0  0  0  0  0  0
    5.7883    2.2460   -3.4318 C   0  0  0  0  0  0  0  0  0  0  0  0
    6.1206    2.6193   -2.1930 C   0  0  0  0  0  0  0  0  0  0  0  0
    6.7380    3.3368    0.5184 O   0  0  0  0  0  0  0  0  0  0  0  0
    6.0216    4.5167    0.8877 C   0  0  0  0  0  0  0  0  0  0  0  0
    5.4618    1.5725    2.7751 C   0  0  0  0  0  0  0  0  0  0  0  0
    4.6763    0.5554    3.2594 C   0  0  0  0  0  0  0  0  0  0  0  0
    4.0692   -0.1005    2.2401 O   0  0  0  0  0  0  0  0  0  0  0  0
   -7.2147   -3.5445    1.1754 C   0  0  0  0  0  0  0  0  0  0  0  0
   -7.6325   -2.2650    1.4594 C   0  0  0  0  0  0  0  0  0  0  0  0
   -6.5796   -1.4077    1.4650 O   0  0  0  0  0  0  0  0  0  0  0  0
   -5.4465    3.2656   -0.2474 C   0  0  0  0  0  0  0  0  0  0  0  0
   -3.7256    4.8375    1.2808 H   0  0  0  0  0  0  0  0  0  0  0  0
   -2.2216    4.0261    0.8282 H   0  0  0  0  0  0  0  0  0  0  0  0
   -3.1650    4.8698   -0.4061 H   0  0  0  0  0  0  0  0  0  0  0  0
   -2.4440    1.7286    0.6901 H   0  0  0  0  0  0  0  0  0  0  0  0
   -5.1843    0.4979   -0.0101 H   0  0  0  0  0  0  0  0  0  0  0  0
   -3.6368   -0.0210   -0.7331 H   0  0  0  0  0  0  0  0  0  0  0  0
   -5.0322   -5.4485    0.5482 H   0  0  0  0  0  0  0  0  0  0  0  0
   -0.3623   -5.0382   -0.2302 H   0  0  0  0  0  0  0  0  0  0  0  0
   -2.5893   -5.9530    0.2630 H   0  0  0  0  0  0  0  0  0  0  0  0
    1.7715   -3.1573   -0.6716 H   0  0  0  0  0  0  0  0  0  0  0  0
   -0.8467    0.1224   -1.6817 H   0  0  0  0  0  0  0  0  0  0  0  0
   -0.4298   -0.0827    0.0086 H   0  0  0  0  0  0  0  0  0  0  0  0
    0.7897    0.5223   -1.1228 H   0  0  0  0  0  0  0  0  0  0  0  0
    0.2653   -1.3697   -3.4664 H   0  0  0  0  0  0  0  0  0  0  0  0
    1.2657   -2.7226   -2.9790 H   0  0  0  0  0  0  0  0  0  0  0  0
    1.8882   -1.0663   -2.8188 H   0  0  0  0  0  0  0  0  0  0  0  0
    1.8654   -0.5584    0.9370 H   0  0  0  0  0  0  0  0  0  0  0  0
    2.8918   -1.9927    1.1364 H   0  0  0  0  0  0  0  0  0  0  0  0
    6.1984    2.7371   -4.3059 H   0  0  0  0  0  0  0  0  0  0  0  0
    6.8231    3.4296   -2.0281 H   0  0  0  0  0  0  0  0  0  0  0  0
    5.2608    4.7731    0.1418 H   0  0  0  0  0  0  0  0  0  0  0  0
    5.5642    4.4097    1.8763 H   0  0  0  0  0  0  0  0  0  0  0  0
    6.7392    5.3412    0.9356 H   0  0  0  0  0  0  0  0  0  0  0  0
    6.0655    2.2483    3.3641 H   0  0  0  0  0  0  0  0  0  0  0  0
    4.4569    0.1840    4.2512 H   0  0  0  0  0  0  0  0  0  0  0  0
   -7.8458   -4.4192    1.1097 H   0  0  0  0  0  0  0  0  0  0  0  0
   -8.5949   -1.8207    1.6726 H   0  0  0  0  0  0  0  0  0  0  0  0
   -5.9887    2.3610   -0.5297 H   0  0  0  0  0  0  0  0  0  0  0  0
   -5.4434    3.9231   -1.1234 H   0  0  0  0  0  0  0  0  0  0  0  0
   -6.0126    3.7580    0.5501 H   0  0  0  0  0  0  0  0  0  0  0  0
  1  2  1  0
  2  3  2  3
  3  4  1  0
  4  5  1  0
  5  6  1  0
  6  7  2  0
  7  8  1  0
  8  9  2  0
  9 10  1  0
 10 11  2  0
 11 12  1  0
 12 13  1  0
 13 14  1  0
 14 15  2  0
 13 16  1  0
 16 17  1  0
 17 18  1  0
 18 19  1  0
 18 20  1  0
 18 21  1  0
 17 22  1  0
 22 23  1  0
 23 24  1  0
 24 25  2  0
 25 26  1  0
 26 27  2  0
 27 28  1  0
 28 29  2  0
 29 30  1  0
 30 31  1  0
 31 32  2  0
 31 33  1  0
 33 34  2  0
 27 35  1  0
 35 36  1  0
 26 37  1  0
 37 38  2  0
 38 39  1  0
  8 40  1  0
 40 41  2  0
 41 42  1  0
  2 43  1  0
 11  6  1  0
 42  7  1  0
 15 10  1  0
 19 13  1  0
 29 24  1  0
 39 25  1  0
 34 28  1  0
  1 44  1  0
  1 45  1  0
  1 46  1  0
  3 47  1  0
  4 48  1  0
  4 49  1  0
  9 50  1  0
 14 51  1  0
 15 52  1  0
 17 53  1  0
 20 54  1  0
 20 55  1  0
 20 56  1  0
 21 57  1  0
 21 58  1  0
 21 59  1  0
 22 60  1  0
 22 61  1  0
 33 62  1  0
 34 63  1  0
 36 64  1  0
 36 65  1  0
 36 66  1  0
 37 67  1  0
 38 68  1  0
 40 69  1  0
 41 70  1  0
 43 71  1  0
 43 72  1  0
 43 73  1  0
M  END
>  <Name>  (897) 
Dahuribirin A

>  <PubChem ID>  (897) 
11017376

>  <CDB ID>  (897) 
CDB0897

>  <Smiles>  (897) 
CC(=CCOC1=C2C(=CC3=C1OC4(C=C3)OC(C(O4)(C)C)COC5=C6C(=C(C7=C5OC(=O)C=C7)OC)C=CO6)C=CO2)C

>  <Chemical class>  (897) 
Oligomeric coumarins

>  <Natural source>  (897) 
Angelica dahurica

>  <Molecular Formula>  (897) 
C33H30O10

>  <InChI-Key>  (897) 
HCKXEUGWKJVWHW-UHFFFAOYSA-N

>  <Total Molweight>  (897) 
586.591

>  <cLogP>  (897) 
6.6711

>  <cLogS>  (897) 
-7.95

>  <H-Acceptors>  (897) 
10

>  <H-Donors>  (897) 
0

>  <Rotatable Bonds>  (897) 
7

>  <Polar Surface Area>  (897) 
107.96

$$$$
CDB0898
     RDKit          3D

 78 83  0  0  0  0  0  0  0  0999 V2000
   -1.4362   -3.8010   -2.0505 C   0  0  0  0  0  0  0  0  0  0  0  0
   -1.8111   -3.0189   -0.8219 C   0  0  0  0  0  0  0  0  0  0  0  0
   -2.6382   -3.5422    0.1012 C   0  0  0  0  0  0  0  0  0  0  0  0
   -1.1954   -1.6275   -0.7140 C   0  0  0  0  0  0  0  0  0  0  0  0
   -2.0132   -0.5653   -1.4869 C   0  0  0  0  0  0  0  0  0  0  0  0
   -3.3414   -0.4753   -0.9624 O   0  0  0  0  0  0  0  0  0  0  0  0
   -4.2050    0.4064   -1.5842 C   0  0  0  0  0  0  0  0  0  0  0  0
   -3.9241    1.3039   -2.6242 C   0  0  0  0  0  0  0  0  0  0  0  0
   -4.8676    2.1706   -3.1776 C   0  0  0  0  0  0  0  0  0  0  0  0
   -6.1810    2.1659   -2.6598 C   0  0  0  0  0  0  0  0  0  0  0  0
   -6.5246    1.2545   -1.6448 C   0  0  0  0  0  0  0  0  0  0  0  0
   -5.5360    0.4134   -1.1258 C   0  0  0  0  0  0  0  0  0  0  0  0
   -5.8587   -0.4980   -0.0831 O   0  0  0  0  0  0  0  0  0  0  0  0
   -7.1342   -0.6025    0.4449 C   0  0  0  0  0  0  0  0  0  0  0  0
   -7.4207   -1.3822    1.3456 O   0  0  0  0  0  0  0  0  0  0  0  0
   -8.1561    0.2817   -0.1351 C   0  0  0  0  0  0  0  0  0  0  0  0
   -7.8794    1.1515   -1.1103 C   0  0  0  0  0  0  0  0  0  0  0  0
   -7.1519    2.9893   -3.1943 O   0  0  0  0  0  0  0  0  0  0  0  0
   -7.0377    4.3021   -2.6415 C   0  0  0  0  0  0  0  0  0  0  0  0
   -4.1910    2.8824   -4.2082 C   0  0  0  0  0  0  0  0  0  0  0  0
   -2.8951    2.4292   -4.2097 C   0  0  0  0  0  0  0  0  0  0  0  0
   -2.7246    1.4803   -3.2570 O   0  0  0  0  0  0  0  0  0  0  0  0
   -1.1008   -1.2546    0.6713 O   0  0  0  0  0  0  0  0  0  0  0  0
    0.2059   -0.9065    1.1954 C   0  0  0  0  0  0  0  0  0  0  0  0
   -0.0970   -0.4262    2.6283 C   0  0  0  0  0  0  0  0  0  0  0  0
    0.8000    0.2791    0.4214 C   0  0  0  0  0  0  0  0  0  0  0  0
    1.1158   -2.1802    1.2139 C   0  0  0  0  0  0  0  0  0  0  0  0
    2.5249   -1.9978    1.8002 C   0  0  0  0  0  0  0  0  0  0  0  0
    3.3013   -1.1818    0.9264 O   0  0  0  0  0  0  0  0  0  0  0  0
    4.5135   -0.7278    1.4103 C   0  0  0  0  0  0  0  0  0  0  0  0
    5.2414   -1.2164    2.5030 C   0  0  0  0  0  0  0  0  0  0  0  0
    6.4722   -0.6994    2.9092 C   0  0  0  0  0  0  0  0  0  0  0  0
    7.0226    0.3862    2.1930 C   0  0  0  0  0  0  0  0  0  0  0  0
    6.3558    0.8775    1.0556 C   0  0  0  0  0  0  0  0  0  0  0  0
    5.1250    0.3204    0.6986 C   0  0  0  0  0  0  0  0  0  0  0  0
    4.4208    0.8203   -0.4304 O   0  0  0  0  0  0  0  0  0  0  0  0
    4.9121    1.8500   -1.2152 C   0  0  0  0  0  0  0  0  0  0  0  0
    4.3024    2.2942   -2.1806 O   0  0  0  0  0  0  0  0  0  0  0  0
    6.2211    2.3986   -0.8309 C   0  0  0  0  0  0  0  0  0  0  0  0
    6.9006    1.9504    0.2284 C   0  0  0  0  0  0  0  0  0  0  0  0
    8.2499    0.9136    2.5419 O   0  0  0  0  0  0  0  0  0  0  0  0
    8.1022    1.8132    3.6422 C   0  0  0  0  0  0  0  0  0  0  0  0
    6.8769   -1.4841    4.0259 C   0  0  0  0  0  0  0  0  0  0  0  0
    5.8820   -2.4069    4.2358 C   0  0  0  0  0  0  0  0  0  0  0  0
    4.8917   -2.2512    3.3235 O   0  0  0  0  0  0  0  0  0  0  0  0
    0.4558   -3.2253    1.9496 O   0  0  0  0  0  0  0  0  0  0  0  0
   -0.3523   -3.9502   -2.0888 H   0  0  0  0  0  0  0  0  0  0  0  0
   -1.7471   -3.2680   -2.9545 H   0  0  0  0  0  0  0  0  0  0  0  0
   -1.9076   -4.7894   -2.0701 H   0  0  0  0  0  0  0  0  0  0  0  0
   -2.9388   -2.9707    0.9763 H   0  0  0  0  0  0  0  0  0  0  0  0
   -3.0656   -4.5341   -0.0046 H   0  0  0  0  0  0  0  0  0  0  0  0
   -0.1970   -1.6678   -1.1617 H   0  0  0  0  0  0  0  0  0  0  0  0
   -2.0474   -0.8402   -2.5476 H   0  0  0  0  0  0  0  0  0  0  0  0
   -1.5215    0.4053   -1.3637 H   0  0  0  0  0  0  0  0  0  0  0  0
   -9.1532    0.1821    0.2758 H   0  0  0  0  0  0  0  0  0  0  0  0
   -8.6568    1.7843   -1.5252 H   0  0  0  0  0  0  0  0  0  0  0  0
   -7.8922    4.8875   -2.9937 H   0  0  0  0  0  0  0  0  0  0  0  0
   -7.0708    4.2799   -1.5464 H   0  0  0  0  0  0  0  0  0  0  0  0
   -6.1243    4.7985   -2.9843 H   0  0  0  0  0  0  0  0  0  0  0  0
   -4.6059    3.6329   -4.8659 H   0  0  0  0  0  0  0  0  0  0  0  0
   -2.0183    2.6659   -4.7967 H   0  0  0  0  0  0  0  0  0  0  0  0
   -0.5651   -1.2166    3.2255 H   0  0  0  0  0  0  0  0  0  0  0  0
   -0.8150    0.4030    2.6113 H   0  0  0  0  0  0  0  0  0  0  0  0
    0.8009   -0.0812    3.1493 H   0  0  0  0  0  0  0  0  0  0  0  0
    1.6425    0.7327    0.9524 H   0  0  0  0  0  0  0  0  0  0  0  0
    1.1490   -0.0170   -0.5728 H   0  0  0  0  0  0  0  0  0  0  0  0
    0.0477    1.0621    0.2739 H   0  0  0  0  0  0  0  0  0  0  0  0
    1.2288   -2.5565    0.1914 H   0  0  0  0  0  0  0  0  0  0  0  0
    2.4613   -1.5658    2.8052 H   0  0  0  0  0  0  0  0  0  0  0  0
    2.9926   -2.9868    1.8820 H   0  0  0  0  0  0  0  0  0  0  0  0
    6.6050    3.1903   -1.4624 H   0  0  0  0  0  0  0  0  0  0  0  0
    7.8690    2.3684    0.4831 H   0  0  0  0  0  0  0  0  0  0  0  0
    7.8417    1.2773    4.5603 H   0  0  0  0  0  0  0  0  0  0  0  0
    9.0658    2.3062    3.8014 H   0  0  0  0  0  0  0  0  0  0  0  0
    7.3569    2.5877    3.4288 H   0  0  0  0  0  0  0  0  0  0  0  0
    7.7883   -1.3870    4.5987 H   0  0  0  0  0  0  0  0  0  0  0  0
    5.7370   -3.2050    4.9512 H   0  0  0  0  0  0  0  0  0  0  0  0
   -0.4807   -3.1918    1.6685 H   0  0  0  0  0  0  0  0  0  0  0  0
  1  2  1  0
  2  3  2  0
  2  4  1  0
  4  5  1  0
  5  6  1  0
  6  7  1  0
  7  8  2  0
  8  9  1  0
  9 10  2  0
 10 11  1  0
 11 12  2  0
 12 13  1  0
 13 14  1  0
 14 15  2  0
 14 16  1  0
 16 17  2  0
 10 18  1  0
 18 19  1  0
  9 20  1  0
 20 21  2  0
 21 22  1  0
  4 23  1  0
 23 24  1  0
 24 25  1  0
 24 26  1  0
 24 27  1  0
 27 28  1  0
 28 29  1  0
 29 30  1  0
 30 31  2  0
 31 32  1  0
 32 33  2  0
 33 34  1  0
 34 35  2  0
 35 36  1  0
 36 37  1  0
 37 38  2  0
 37 39  1  0
 39 40  2  0
 33 41  1  0
 41 42  1  0
 32 43  1  0
 43 44  2  0
 44 45  1  0
 27 46  1  0
 12  7  1  0
 22  8  1  0
 17 11  1  0
 35 30  1  0
 45 31  1  0
 40 34  1  0
  1 47  1  0
  1 48  1  0
  1 49  1  0
  3 50  1  0
  3 51  1  0
  4 52  1  0
  5 53  1  0
  5 54  1  0
 16 55  1  0
 17 56  1  0
 19 57  1  0
 19 58  1  0
 19 59  1  0
 20 60  1  0
 21 61  1  0
 25 62  1  0
 25 63  1  0
 25 64  1  0
 26 65  1  0
 26 66  1  0
 26 67  1  0
 27 68  1  0
 28 69  1  0
 28 70  1  0
 39 71  1  0
 40 72  1  0
 42 73  1  0
 42 74  1  0
 42 75  1  0
 43 76  1  0
 44 77  1  0
 46 78  1  0
M  END
>  <Name>  (898) 
Dahuribirin F

>  <PubChem ID>  (898) 
11050454

>  <CDB ID>  (898) 
CDB0898

>  <Smiles>  (898) 
CC(=C)C(COC1=C2C(=C(C3=C1OC(=O)C=C3)OC)C=CO2)OC(C)(C)C(COC4=C5C(=C(C6=C4OC(=O)C=C6)OC)C=CO5)O

>  <Chemical class>  (898) 
Oligomeric coumarins

>  <Natural source>  (898) 
Angelica dahurica

>  <Molecular Formula>  (898) 
C34H32O12

>  <InChI-Key>  (898) 
JXAVUIQDQXFQNF-UHFFFAOYSA-N

>  <Total Molweight>  (898) 
632.616

>  <cLogP>  (898) 
4.768

>  <cLogS>  (898) 
-7.736

>  <H-Acceptors>  (898) 
12

>  <H-Donors>  (898) 
1

>  <Rotatable Bonds>  (898) 
12

>  <Polar Surface Area>  (898) 
145.26

$$$$
CDB0899
     RDKit          3D

 81 87  0  0  0  0  0  0  0  0999 V2000
    0.8242   -0.5981    3.3577 C   0  0  0  0  0  0  0  0  0  0  0  0
    1.0723   -2.1054    3.2360 C   0  0  0  0  0  0  0  0  0  0  0  0
    1.7202   -2.5875    1.9424 C   0  0  0  0  0  0  0  0  0  0  0  0
    0.6422   -2.6331    0.9991 O   0  0  0  0  0  0  0  0  0  0  0  0
   -0.5486   -2.8003    1.7881 C   0  0  0  0  0  0  0  0  0  0  0  0
   -0.1925   -2.7848    3.1848 O   0  0  0  0  0  0  0  0  0  0  0  0
   -1.0937   -4.1636    1.4927 C   0  0  0  0  0  0  0  0  0  0  0  0
   -2.1509   -4.3564    0.6972 C   0  0  0  0  0  0  0  0  0  0  0  0
   -2.7673   -3.1786    0.0864 C   0  0  0  0  0  0  0  0  0  0  0  0
   -3.7398   -3.2964   -0.9260 C   0  0  0  0  0  0  0  0  0  0  0  0
   -4.3765   -2.1394   -1.4199 C   0  0  0  0  0  0  0  0  0  0  0  0
   -3.9875   -0.8966   -0.9224 C   0  0  0  0  0  0  0  0  0  0  0  0
   -2.9973   -0.7258    0.0555 C   0  0  0  0  0  0  0  0  0  0  0  0
   -2.3955   -1.9047    0.5453 C   0  0  0  0  0  0  0  0  0  0  0  0
   -1.4652   -1.7327    1.5438 O   0  0  0  0  0  0  0  0  0  0  0  0
   -2.5508    0.4612    0.6139 O   0  0  0  0  0  0  0  0  0  0  0  0
   -3.1218    1.6751    0.1116 C   0  0  0  0  0  0  0  0  0  0  0  0
   -2.4360    2.8284    0.8563 C   0  0  0  0  0  0  0  0  0  0  0  0
   -2.9102    4.2464    0.4526 C   0  0  0  0  0  0  0  0  0  0  0  0
   -4.4187    4.4489    0.6267 C   0  0  0  0  0  0  0  0  0  0  0  0
   -2.4898    4.6171   -0.9682 C   0  0  0  0  0  0  0  0  0  0  0  0
   -2.2658    5.1815    1.3403 O   0  0  0  0  0  0  0  0  0  0  0  0
   -2.6665    2.6732    2.2787 O   0  0  0  0  0  0  0  0  0  0  0  0
   -4.7247    0.0828   -1.5300 O   0  0  0  0  0  0  0  0  0  0  0  0
   -5.5760   -0.5190   -2.3964 C   0  0  0  0  0  0  0  0  0  0  0  0
   -5.4074   -1.8810   -2.3665 C   0  0  0  0  0  0  0  0  0  0  0  0
   -4.1198   -4.5458   -1.3744 O   0  0  0  0  0  0  0  0  0  0  0  0
   -3.4165   -4.8600   -2.5777 C   0  0  0  0  0  0  0  0  0  0  0  0
    2.9170   -1.8074    1.3951 C   0  0  0  0  0  0  0  0  0  0  0  0
    2.5382   -0.4764    1.0410 O   0  0  0  0  0  0  0  0  0  0  0  0
    3.4099    0.1628    0.1831 C   0  0  0  0  0  0  0  0  0  0  0  0
    4.8077    0.0775    0.2057 C   0  0  0  0  0  0  0  0  0  0  0  0
    5.6421    0.7832   -0.6598 C   0  0  0  0  0  0  0  0  0  0  0  0
    5.0553    1.6312   -1.6239 C   0  0  0  0  0  0  0  0  0  0  0  0
    3.6568    1.7946   -1.6467 C   0  0  0  0  0  0  0  0  0  0  0  0
    2.8704    1.0594   -0.7543 C   0  0  0  0  0  0  0  0  0  0  0  0
    1.4559    1.1827   -0.7855 O   0  0  0  0  0  0  0  0  0  0  0  0
    0.8063    2.0050   -1.6905 C   0  0  0  0  0  0  0  0  0  0  0  0
   -0.4145    2.0847   -1.7617 O   0  0  0  0  0  0  0  0  0  0  0  0
    1.6598    2.8024   -2.5833 C   0  0  0  0  0  0  0  0  0  0  0  0
    2.9919    2.7095   -2.5696 C   0  0  0  0  0  0  0  0  0  0  0  0
    5.8420    2.3698   -2.4848 O   0  0  0  0  0  0  0  0  0  0  0  0
    6.2581    1.5590   -3.5852 C   0  0  0  0  0  0  0  0  0  0  0  0
    6.9714    0.4336   -0.2916 C   0  0  0  0  0  0  0  0  0  0  0  0
    6.8674   -0.4526    0.7527 C   0  0  0  0  0  0  0  0  0  0  0  0
    5.5650   -0.6751    1.0588 O   0  0  0  0  0  0  0  0  0  0  0  0
    1.8278   -2.5949    4.4709 C   0  0  0  0  0  0  0  0  0  0  0  0
    1.7565   -0.0479    3.5212 H   0  0  0  0  0  0  0  0  0  0  0  0
    0.3348   -0.1838    2.4709 H   0  0  0  0  0  0  0  0  0  0  0  0
    0.1546   -0.3881    4.2000 H   0  0  0  0  0  0  0  0  0  0  0  0
    2.0413   -3.6309    2.0694 H   0  0  0  0  0  0  0  0  0  0  0  0
   -0.5862   -5.0096    1.9401 H   0  0  0  0  0  0  0  0  0  0  0  0
   -2.5399   -5.3446    0.4829 H   0  0  0  0  0  0  0  0  0  0  0  0
   -4.1924    1.6735    0.3419 H   0  0  0  0  0  0  0  0  0  0  0  0
   -2.9477    1.7605   -0.9646 H   0  0  0  0  0  0  0  0  0  0  0  0
   -1.3478    2.7554    0.7418 H   0  0  0  0  0  0  0  0  0  0  0  0
   -4.7360    4.2130    1.6484 H   0  0  0  0  0  0  0  0  0  0  0  0
   -4.9981    3.8346   -0.0692 H   0  0  0  0  0  0  0  0  0  0  0  0
   -4.6893    5.4981    0.4588 H   0  0  0  0  0  0  0  0  0  0  0  0
   -2.7563    5.6565   -1.1932 H   0  0  0  0  0  0  0  0  0  0  0  0
   -2.9596    3.9750   -1.7190 H   0  0  0  0  0  0  0  0  0  0  0  0
   -1.4020    4.5526   -1.0804 H   0  0  0  0  0  0  0  0  0  0  0  0
   -2.3105    4.7519    2.2202 H   0  0  0  0  0  0  0  0  0  0  0  0
   -2.4498    1.7363    2.4635 H   0  0  0  0  0  0  0  0  0  0  0  0
   -6.2284    0.1441   -2.9473 H   0  0  0  0  0  0  0  0  0  0  0  0
   -5.9578   -2.6073   -2.9472 H   0  0  0  0  0  0  0  0  0  0  0  0
   -2.3315   -4.8148   -2.4315 H   0  0  0  0  0  0  0  0  0  0  0  0
   -3.6771   -5.8849   -2.8583 H   0  0  0  0  0  0  0  0  0  0  0  0
   -3.7173   -4.1988   -3.3970 H   0  0  0  0  0  0  0  0  0  0  0  0
    3.6983   -1.7798    2.1612 H   0  0  0  0  0  0  0  0  0  0  0  0
    3.2876   -2.3317    0.5047 H   0  0  0  0  0  0  0  0  0  0  0  0
    1.1411    3.4746   -3.2558 H   0  0  0  0  0  0  0  0  0  0  0  0
    3.5969    3.3173   -3.2341 H   0  0  0  0  0  0  0  0  0  0  0  0
    6.7732    2.2068   -4.3008 H   0  0  0  0  0  0  0  0  0  0  0  0
    5.4006    1.1056   -4.0951 H   0  0  0  0  0  0  0  0  0  0  0  0
    6.9619    0.7849   -3.2633 H   0  0  0  0  0  0  0  0  0  0  0  0
    7.8892    0.7966   -0.7323 H   0  0  0  0  0  0  0  0  0  0  0  0
    7.5882   -0.9830    1.3598 H   0  0  0  0  0  0  0  0  0  0  0  0
    2.8253   -2.1494    4.5374 H   0  0  0  0  0  0  0  0  0  0  0  0
    1.9336   -3.6858    4.4614 H   0  0  0  0  0  0  0  0  0  0  0  0
    1.2760   -2.3511    5.3861 H   0  0  0  0  0  0  0  0  0  0  0  0
  1  2  1  0
  2  3  1  0
  3  4  1  0
  4  5  1  0
  5  6  1  0
  5  7  1  0
  7  8  2  0
  8  9  1  0
  9 10  1  0
 10 11  2  0
 11 12  1  0
 12 13  2  0
 13 14  1  0
 14 15  1  0
 13 16  1  0
 16 17  1  0
 17 18  1  0
 18 19  1  0
 19 20  1  0
 19 21  1  0
 19 22  1  0
 18 23  1  0
 12 24  1  0
 24 25  1  0
 25 26  2  0
 10 27  1  0
 27 28  1  0
  3 29  1  0
 29 30  1  0
 30 31  1  0
 31 32  2  0
 32 33  1  0
 33 34  2  0
 34 35  1  0
 35 36  2  0
 36 37  1  0
 37 38  1  0
 38 39  2  0
 38 40  1  0
 40 41  2  0
 34 42  1  0
 42 43  1  0
 33 44  1  0
 44 45  2  0
 45 46  1  0
  2 47  1  0
  6  2  1  0
 15  5  1  0
 14  9  2  0
 26 11  1  0
 36 31  1  0
 46 32  1  0
 41 35  1  0
  1 48  1  0
  1 49  1  0
  1 50  1  0
  3 51  1  0
  7 52  1  0
  8 53  1  0
 17 54  1  0
 17 55  1  0
 18 56  1  0
 20 57  1  0
 20 58  1  0
 20 59  1  0
 21 60  1  0
 21 61  1  0
 21 62  1  0
 22 63  1  0
 23 64  1  0
 25 65  1  0
 26 66  1  0
 28 67  1  0
 28 68  1  0
 28 69  1  0
 29 70  1  0
 29 71  1  0
 40 72  1  0
 41 73  1  0
 43 74  1  0
 43 75  1  0
 43 76  1  0
 44 77  1  0
 45 78  1  0
 47 79  1  0
 47 80  1  0
 47 81  1  0
M  END
>  <Name>  (899) 
Dahuribirin B

>  <PubChem ID>  (899) 
10886819

>  <CDB ID>  (899) 
CDB0899

>  <Smiles>  (899) 
CC1(C(OC2(O1)C=CC3=C(C4=C(C(=C3O2)OCC(C(C)(C)O)O)OC=C4)OC)COC5=C6C(=C(C7=C5OC(=O)C=C7)OC)C=CO6)C

>  <Chemical class>  (899) 
Oligomeric coumarins

>  <Natural source>  (899) 
Angelica dahurica

>  <Molecular Formula>  (899) 
C34H34O13

>  <InChI-Key>  (899) 
WTXFYLVSVHJEKX-UHFFFAOYSA-N

>  <Total Molweight>  (899) 
650.631

>  <cLogP>  (899) 
4.5839

>  <cLogS>  (899) 
-7.383

>  <H-Acceptors>  (899) 
13

>  <H-Donors>  (899) 
2

>  <Rotatable Bonds>  (899) 
9

>  <Polar Surface Area>  (899) 
157.65

$$$$
CDB0900
     RDKit          3D

 46 49  0  0  0  0  0  0  0  0999 V2000
    2.6311    1.8235   -2.3443 C   0  0  0  0  0  0  0  0  0  0  0  0
    3.4655    0.6963   -2.1187 O   0  0  0  0  0  0  0  0  0  0  0  0
    3.1850   -0.0961   -1.0363 C   0  0  0  0  0  0  0  0  0  0  0  0
    4.0132   -1.2098   -0.8545 C   0  0  0  0  0  0  0  0  0  0  0  0
    3.8100   -2.0871    0.2073 C   0  0  0  0  0  0  0  0  0  0  0  0
    2.7713   -1.8497    1.1079 C   0  0  0  0  0  0  0  0  0  0  0  0
    1.9311   -0.7308    0.9682 C   0  0  0  0  0  0  0  0  0  0  0  0
    2.1462    0.1298   -0.1240 C   0  0  0  0  0  0  0  0  0  0  0  0
    0.8037   -0.5438    1.9780 C   0  0  0  0  0  0  0  0  0  0  0  0
    0.2821    0.8642    2.3087 C   0  0  0  0  0  0  0  0  0  0  0  0
   -0.4156    1.4582    1.2011 O   0  0  0  0  0  0  0  0  0  0  0  0
   -1.2783    0.5747    0.6044 C   0  0  0  0  0  0  0  0  0  0  0  0
   -2.2317    1.0980   -0.2691 C   0  0  0  0  0  0  0  0  0  0  0  0
   -3.1545    0.2767   -0.9131 C   0  0  0  0  0  0  0  0  0  0  0  0
   -3.1212   -1.1027   -0.6817 C   0  0  0  0  0  0  0  0  0  0  0  0
   -2.1604   -1.6537    0.1768 C   0  0  0  0  0  0  0  0  0  0  0  0
   -1.2289   -0.8079    0.8097 C   0  0  0  0  0  0  0  0  0  0  0  0
   -0.2894   -1.4045    1.6177 O   0  0  0  0  0  0  0  0  0  0  0  0
   -2.0439   -2.9909    0.4606 O   0  0  0  0  0  0  0  0  0  0  0  0
   -2.9057   -3.8902   -0.2226 C   0  0  0  0  0  0  0  0  0  0  0  0
   -4.1314    0.8783   -1.8081 C   0  0  0  0  0  0  0  0  0  0  0  0
   -4.1246    2.2007   -2.0008 C   0  0  0  0  0  0  0  0  0  0  0  0
   -3.1575    3.0912   -1.3370 C   0  0  0  0  0  0  0  0  0  0  0  0
   -3.1755    4.2989   -1.5421 O   0  0  0  0  0  0  0  0  0  0  0  0
   -2.2426    2.4939   -0.4838 O   0  0  0  0  0  0  0  0  0  0  0  0
    1.3858    1.8258    2.7540 C   0  0  0  0  0  0  0  0  0  0  0  0
    0.8066    3.0330    3.2547 O   0  0  0  0  0  0  0  0  0  0  0  0
    5.0325   -1.4392   -1.7401 O   0  0  0  0  0  0  0  0  0  0  0  0
    2.9922    2.3324   -3.2432 H   0  0  0  0  0  0  0  0  0  0  0  0
    1.5956    1.5185   -2.5288 H   0  0  0  0  0  0  0  0  0  0  0  0
    2.6933    2.5337   -1.5132 H   0  0  0  0  0  0  0  0  0  0  0  0
    4.4414   -2.9591    0.3452 H   0  0  0  0  0  0  0  0  0  0  0  0
    2.6117   -2.5552    1.9221 H   0  0  0  0  0  0  0  0  0  0  0  0
    1.4899    0.9799   -0.2653 H   0  0  0  0  0  0  0  0  0  0  0  0
    1.1822   -0.9418    2.9302 H   0  0  0  0  0  0  0  0  0  0  0  0
   -0.4551    0.7918    3.1222 H   0  0  0  0  0  0  0  0  0  0  0  0
   -3.8494   -1.7327   -1.1823 H   0  0  0  0  0  0  0  0  0  0  0  0
   -2.6488   -4.9056    0.0942 H   0  0  0  0  0  0  0  0  0  0  0  0
   -3.9521   -3.7129    0.0463 H   0  0  0  0  0  0  0  0  0  0  0  0
   -2.7595   -3.8328   -1.3062 H   0  0  0  0  0  0  0  0  0  0  0  0
   -4.8544    0.2445   -2.3100 H   0  0  0  0  0  0  0  0  0  0  0  0
   -4.8344    2.6861   -2.6598 H   0  0  0  0  0  0  0  0  0  0  0  0
    1.9886    1.3908    3.5567 H   0  0  0  0  0  0  0  0  0  0  0  0
    2.0453    2.1092    1.9292 H   0  0  0  0  0  0  0  0  0  0  0  0
    0.2143    3.3681    2.5544 H   0  0  0  0  0  0  0  0  0  0  0  0
    5.4963   -2.2514   -1.4861 H   0  0  0  0  0  0  0  0  0  0  0  0
  1  2  1  0
  2  3  1  0
  3  4  2  0
  4  5  1  0
  5  6  2  0
  6  7  1  0
  7  8  2  0
  7  9  1  0
  9 10  1  0
 10 11  1  0
 11 12  1  0
 12 13  1  0
 13 14  2  0
 14 15  1  0
 15 16  2  0
 16 17  1  0
 17 18  1  0
 16 19  1  0
 19 20  1  0
 14 21  1  0
 21 22  2  0
 22 23  1  0
 23 24  2  0
 23 25  1  0
 10 26  1  0
 26 27  1  0
  4 28  1  0
  8  3  1  0
 18  9  1  0
 17 12  2  0
 25 13  1  0
  1 29  1  0
  1 30  1  0
  1 31  1  0
  5 32  1  0
  6 33  1  0
  8 34  1  0
  9 35  1  0
 10 36  1  0
 15 37  1  0
 20 38  1  0
 20 39  1  0
 20 40  1  0
 21 41  1  0
 22 42  1  0
 26 43  1  0
 26 44  1  0
 27 45  1  0
 28 46  1  0
M  END
>  <Name>  (900) 
8'-Epi-Cleomiscosin A

>  <PubChem ID>  (900) 
11200016

>  <CDB ID>  (900) 
CDB0900

>  <Smiles>  (900) 
COC1=C(C=CC(=C1)C2C(OC3=C4C(=CC(=C3O2)OC)C=CC(=O)O4)CO)O

>  <Chemical class>  (900) 
Oligomeric coumarins

>  <Natural source>  (900) 
Angelica dahurica

>  <Molecular Formula>  (900) 
C20H18O8

>  <InChI-Key>  (900) 
OCBGWPJNUZMLCA-UHFFFAOYSA-N

>  <Total Molweight>  (900) 
386.355

>  <cLogP>  (900) 
1.9047

>  <cLogS>  (900) 
-3.257

>  <H-Acceptors>  (900) 
8

>  <H-Donors>  (900) 
2

>  <Rotatable Bonds>  (900) 
4

>  <Polar Surface Area>  (900) 
103.68

$$$$
CDB0901
     RDKit          3D

 57 58  0  0  0  0  0  0  0  0999 V2000
   -6.5842    0.2017   -0.9929 C   0  0  0  0  0  0  0  0  0  0  0  0
   -5.2800    0.9300   -0.7117 C   0  0  0  0  0  0  0  0  0  0  0  0
   -4.1598   -0.0452   -0.3573 C   0  0  0  0  0  0  0  0  0  0  0  0
   -2.8327    0.6601   -0.0997 C   0  0  0  0  0  0  0  0  0  0  0  0
   -2.7693    1.8873   -0.0152 O   0  0  0  0  0  0  0  0  0  0  0  0
   -1.5824   -0.2135   -0.0214 C   0  0  0  0  0  0  0  0  0  0  0  0
   -0.3210    0.5836    0.3554 C   0  0  0  0  0  0  0  0  0  0  0  0
   -0.2187    0.7710    1.8491 C   0  0  0  0  0  0  0  0  0  0  0  0
    0.5422    1.8140    2.3999 C   0  0  0  0  0  0  0  0  0  0  0  0
    0.6103    1.9598    3.7803 C   0  0  0  0  0  0  0  0  0  0  0  0
   -0.0909    1.1009    4.6220 C   0  0  0  0  0  0  0  0  0  0  0  0
   -0.8284    0.0512    4.0986 C   0  0  0  0  0  0  0  0  0  0  0  0
   -0.8848   -0.0993    2.7131 C   0  0  0  0  0  0  0  0  0  0  0  0
   -1.6173   -1.1969    2.2322 O   0  0  0  0  0  0  0  0  0  0  0  0
   -1.8227   -1.3930    0.8789 C   0  0  0  0  0  0  0  0  0  0  0  0
   -2.3002   -2.4428    0.4522 O   0  0  0  0  0  0  0  0  0  0  0  0
   -0.0827    1.2949    5.9727 O   0  0  0  0  0  0  0  0  0  0  0  0
    1.3988    2.9437    4.3017 O   0  0  0  0  0  0  0  0  0  0  0  0
    0.9579    0.0404   -0.2666 C   0  0  0  0  0  0  0  0  0  0  0  0
    1.5221   -1.1649   -0.0692 C   0  0  0  0  0  0  0  0  0  0  0  0
    2.7790   -1.6002   -0.7708 C   0  0  0  0  0  0  0  0  0  0  0  0
    3.2224   -1.1416   -1.8080 O   0  0  0  0  0  0  0  0  0  0  0  0
    3.2806   -2.6576   -0.0731 O   0  0  0  0  0  0  0  0  0  0  0  0
    4.4880   -3.1940   -0.6302 C   0  0  0  0  0  0  0  0  0  0  0  0
    4.9492   -4.3356    0.2544 C   0  0  0  0  0  0  0  0  0  0  0  0
    0.9409   -2.0675    0.8134 O   0  0  0  0  0  0  0  0  0  0  0  0
    1.6729    1.0260   -1.1318 C   0  0  0  0  0  0  0  0  0  0  0  0
    2.5917    1.6811   -0.6475 O   0  0  0  0  0  0  0  0  0  0  0  0
    1.1405    1.2159   -2.5396 C   0  0  0  0  0  0  0  0  0  0  0  0
    2.1576    1.9081   -3.4423 C   0  0  0  0  0  0  0  0  0  0  0  0
    1.6344    2.0533   -4.8618 C   0  0  0  0  0  0  0  0  0  0  0  0
   -6.4740   -0.4893   -1.8347 H   0  0  0  0  0  0  0  0  0  0  0  0
   -7.3724    0.9187   -1.2430 H   0  0  0  0  0  0  0  0  0  0  0  0
   -6.9102   -0.3705   -0.1185 H   0  0  0  0  0  0  0  0  0  0  0  0
   -4.9974    1.5202   -1.5916 H   0  0  0  0  0  0  0  0  0  0  0  0
   -5.4331    1.6394    0.1103 H   0  0  0  0  0  0  0  0  0  0  0  0
   -4.0146   -0.7496   -1.1839 H   0  0  0  0  0  0  0  0  0  0  0  0
   -4.4322   -0.6056    0.5432 H   0  0  0  0  0  0  0  0  0  0  0  0
   -1.4453   -0.6033   -1.0404 H   0  0  0  0  0  0  0  0  0  0  0  0
   -0.4470    1.5966   -0.0529 H   0  0  0  0  0  0  0  0  0  0  0  0
    1.0928    2.5024    1.7615 H   0  0  0  0  0  0  0  0  0  0  0  0
   -1.3588   -0.6308    4.7551 H   0  0  0  0  0  0  0  0  0  0  0  0
   -0.0242    2.2594    6.1065 H   0  0  0  0  0  0  0  0  0  0  0  0
    1.8750    2.5403    5.0507 H   0  0  0  0  0  0  0  0  0  0  0  0
    5.2587   -2.4157   -0.6629 H   0  0  0  0  0  0  0  0  0  0  0  0
    4.2937   -3.5654   -1.6427 H   0  0  0  0  0  0  0  0  0  0  0  0
    5.8708   -4.7804   -0.1312 H   0  0  0  0  0  0  0  0  0  0  0  0
    4.1795   -5.1121    0.3141 H   0  0  0  0  0  0  0  0  0  0  0  0
    5.1265   -3.9840    1.2762 H   0  0  0  0  0  0  0  0  0  0  0  0
    1.5828   -2.8028    0.9099 H   0  0  0  0  0  0  0  0  0  0  0  0
    0.2232    1.8122   -2.4799 H   0  0  0  0  0  0  0  0  0  0  0  0
    0.8870    0.2337   -2.9547 H   0  0  0  0  0  0  0  0  0  0  0  0
    3.0943    1.3383   -3.4570 H   0  0  0  0  0  0  0  0  0  0  0  0
    2.3982    2.9008   -3.0435 H   0  0  0  0  0  0  0  0  0  0  0  0
    0.7153    2.6477   -4.8820 H   0  0  0  0  0  0  0  0  0  0  0  0
    2.3771    2.5544   -5.4903 H   0  0  0  0  0  0  0  0  0  0  0  0
    1.4209    1.0745   -5.3032 H   0  0  0  0  0  0  0  0  0  0  0  0
  1  2  1  0
  2  3  1  0
  3  4  1  0
  4  5  2  0
  4  6  1  0
  6  7  1  0
  7  8  1  0
  8  9  1  0
  9 10  2  0
 10 11  1  0
 11 12  2  0
 12 13  1  0
 13 14  1  0
 14 15  1  0
 15 16  2  0
 11 17  1  0
 10 18  1  0
  7 19  1  0
 19 20  2  3
 20 21  1  0
 21 22  2  0
 21 23  1  0
 23 24  1  0
 24 25  1  0
 20 26  1  0
 19 27  1  0
 27 28  2  0
 27 29  1  0
 29 30  1  0
 30 31  1  0
 15  6  1  0
 13  8  2  0
  1 32  1  0
  1 33  1  0
  1 34  1  0
  2 35  1  0
  2 36  1  0
  3 37  1  0
  3 38  1  0
  6 39  1  0
  7 40  1  0
  9 41  1  0
 12 42  1  0
 17 43  1  0
 18 44  1  0
 24 45  1  0
 24 46  1  0
 25 47  1  0
 25 48  1  0
 25 49  1  0
 26 50  1  0
 29 51  1  0
 29 52  1  0
 30 53  1  0
 30 54  1  0
 31 55  1  0
 31 56  1  0
 31 57  1  0
M  END
>  <Name>  (901) 
Ethyl (E)-3-((3S,4S)-3-Butyryl-6,7-Dihydroxy-2-Oxochroman-4-Yl)-2-Hydroxy-4-Oxohept-2-Enoate

>  <PubChem ID>  (901) 
132280277

>  <CDB ID>  (901) 
CDB0901

>  <Smiles>  (901) 
CCCC(=O)C1C(C2=CC(=C(C=C2OC1=O)O)O)C(=C(C(=O)OCC)O)C(=O)CCC

>  <Chemical class>  (901) 
Miscellaneous coumarins

>  <Natural source>  (901) 
Euphorbia wallichii

>  <Molecular Formula>  (901) 
C22H26O9

>  <InChI-Key>  (901) 
HMJDWEDAYDGEBV-UHFFFAOYSA-N

>  <Total Molweight>  (901) 
434.439

>  <cLogP>  (901) 
3.1927

>  <cLogS>  (901) 
-3.365

>  <H-Acceptors>  (901) 
9

>  <H-Donors>  (901) 
3

>  <Rotatable Bonds>  (901) 
10

>  <Polar Surface Area>  (901) 
147.43

$$$$
CDB0902
     RDKit          3D

 59 63  0  0  0  0  0  0  0  0999 V2000
   -0.3150   -1.5491    3.9915 C   0  0  0  0  0  0  0  0  0  0  0  0
   -0.3638   -1.1356    2.5389 C   0  0  0  0  0  0  0  0  0  0  0  0
    0.7906   -1.0144    1.8475 C   0  0  0  0  0  0  0  0  0  0  0  0
    1.0424   -0.5461    0.4156 C   0  0  0  0  0  0  0  0  0  0  0  0
    0.0133    0.4067   -0.1605 C   0  0  0  0  0  0  0  0  0  0  0  0
   -1.3712    0.2792   -0.1514 C   0  0  0  0  0  0  0  0  0  0  0  0
   -2.0420   -0.9050    0.5036 C   0  0  0  0  0  0  0  0  0  0  0  0
   -1.7832   -0.9030    2.0332 C   0  0  0  0  0  0  0  0  0  0  0  0
   -3.5319   -0.9997    0.2405 C   0  0  0  0  0  0  0  0  0  0  0  0
   -4.1620   -1.7477   -0.6887 C   0  0  0  0  0  0  0  0  0  0  0  0
   -5.6648   -1.7500   -0.7843 C   0  0  0  0  0  0  0  0  0  0  0  0
   -3.4742   -2.6075   -1.7134 C   0  0  0  0  0  0  0  0  0  0  0  0
   -1.9049    1.4364   -0.8189 C   0  0  0  0  0  0  0  0  0  0  0  0
   -3.1977    1.9128   -1.1325 C   0  0  0  0  0  0  0  0  0  0  0  0
   -3.3563    3.1261   -1.8149 C   0  0  0  0  0  0  0  0  0  0  0  0
   -2.2487    3.8770   -2.1906 C   0  0  0  0  0  0  0  0  0  0  0  0
   -0.9573    3.4372   -1.8962 C   0  0  0  0  0  0  0  0  0  0  0  0
   -0.8195    2.2207   -1.2146 C   0  0  0  0  0  0  0  0  0  0  0  0
    0.3203    1.5739   -0.8084 N   0  0  0  0  0  0  0  0  0  0  0  0
    2.4941   -0.0671    0.2276 C   0  0  0  0  0  0  0  0  0  0  0  0
    3.0259    1.0205    0.9597 C   0  0  0  0  0  0  0  0  0  0  0  0
    4.3530    1.4219    0.7567 C   0  0  0  0  0  0  0  0  0  0  0  0
    5.1676    0.7609   -0.1669 C   0  0  0  0  0  0  0  0  0  0  0  0
    4.6645   -0.3083   -0.9025 C   0  0  0  0  0  0  0  0  0  0  0  0
    3.3416   -0.7075   -0.6994 C   0  0  0  0  0  0  0  0  0  0  0  0
    2.8268   -1.7933   -1.4496 O   0  0  0  0  0  0  0  0  0  0  0  0
    3.5877   -2.4879   -2.3790 C   0  0  0  0  0  0  0  0  0  0  0  0
    3.1458   -3.4329   -3.0212 O   0  0  0  0  0  0  0  0  0  0  0  0
    4.9747   -2.0339   -2.5633 C   0  0  0  0  0  0  0  0  0  0  0  0
    5.4879   -1.0114   -1.8738 C   0  0  0  0  0  0  0  0  0  0  0  0
    2.1682    1.6415    1.8276 O   0  0  0  0  0  0  0  0  0  0  0  0
    2.6773    2.6779    2.6549 C   0  0  0  0  0  0  0  0  0  0  0  0
   -0.7983   -0.7903    4.6157 H   0  0  0  0  0  0  0  0  0  0  0  0
   -0.8360   -2.5017    4.1331 H   0  0  0  0  0  0  0  0  0  0  0  0
    0.7090   -1.6740    4.3590 H   0  0  0  0  0  0  0  0  0  0  0  0
    1.7091   -1.2621    2.3808 H   0  0  0  0  0  0  0  0  0  0  0  0
    0.9283   -1.4670   -0.1730 H   0  0  0  0  0  0  0  0  0  0  0  0
   -1.5700   -1.8143    0.1095 H   0  0  0  0  0  0  0  0  0  0  0  0
   -2.4074   -1.6976    2.4678 H   0  0  0  0  0  0  0  0  0  0  0  0
   -2.1410    0.0409    2.4686 H   0  0  0  0  0  0  0  0  0  0  0  0
   -4.1415   -0.3950    0.9123 H   0  0  0  0  0  0  0  0  0  0  0  0
   -6.1309   -1.1169   -0.0220 H   0  0  0  0  0  0  0  0  0  0  0  0
   -5.9836   -1.3794   -1.7640 H   0  0  0  0  0  0  0  0  0  0  0  0
   -6.0505   -2.7663   -0.6531 H   0  0  0  0  0  0  0  0  0  0  0  0
   -3.8407   -2.3624   -2.7162 H   0  0  0  0  0  0  0  0  0  0  0  0
   -3.6837   -3.6643   -1.5191 H   0  0  0  0  0  0  0  0  0  0  0  0
   -2.3900   -2.4759   -1.7347 H   0  0  0  0  0  0  0  0  0  0  0  0
   -4.0823    1.3499   -0.8570 H   0  0  0  0  0  0  0  0  0  0  0  0
   -4.3564    3.4791   -2.0523 H   0  0  0  0  0  0  0  0  0  0  0  0
   -2.3884    4.8160   -2.7201 H   0  0  0  0  0  0  0  0  0  0  0  0
   -0.0917    4.0219   -2.1889 H   0  0  0  0  0  0  0  0  0  0  0  0
    1.2536    1.9316   -0.9502 H   0  0  0  0  0  0  0  0  0  0  0  0
    4.7860    2.2550    1.3021 H   0  0  0  0  0  0  0  0  0  0  0  0
    6.1936    1.0957   -0.3018 H   0  0  0  0  0  0  0  0  0  0  0  0
    5.5568   -2.5818   -3.2940 H   0  0  0  0  0  0  0  0  0  0  0  0
    6.5141   -0.6953   -2.0265 H   0  0  0  0  0  0  0  0  0  0  0  0
    2.9946    3.5377    2.0562 H   0  0  0  0  0  0  0  0  0  0  0  0
    1.8669    3.0103    3.3108 H   0  0  0  0  0  0  0  0  0  0  0  0
    3.4917    2.3141    3.2899 H   0  0  0  0  0  0  0  0  0  0  0  0
  1  2  1  0
  2  3  2  0
  3  4  1  0
  4  5  1  0
  5  6  2  0
  6  7  1  0
  7  8  1  0
  7  9  1  0
  9 10  2  3
 10 11  1  0
 10 12  1  0
  6 13  1  0
 13 14  2  0
 14 15  1  0
 15 16  2  0
 16 17  1  0
 17 18  2  0
 18 19  1  0
  4 20  1  0
 20 21  2  0
 21 22  1  0
 22 23  2  0
 23 24  1  0
 24 25  2  0
 25 26  1  0
 26 27  1  0
 27 28  2  0
 27 29  1  0
 29 30  2  0
 21 31  1  0
 31 32  1  0
  8  2  1  0
 19  5  1  0
 18 13  1  0
 25 20  1  0
 30 24  1  0
  1 33  1  0
  1 34  1  0
  1 35  1  0
  3 36  1  0
  4 37  1  0
  7 38  1  0
  8 39  1  0
  8 40  1  0
  9 41  1  0
 11 42  1  0
 11 43  1  0
 11 44  1  0
 12 45  1  0
 12 46  1  0
 12 47  1  0
 14 48  1  0
 15 49  1  0
 16 50  1  0
 17 51  1  0
 19 52  1  0
 22 53  1  0
 23 54  1  0
 29 55  1  0
 30 56  1  0
 32 57  1  0
 32 58  1  0
 32 59  1  0
M  END
>  <Name>  (902) 
Exotine A

>  <PubChem ID>  (902) 
122208055

>  <CDB ID>  (902) 
CDB0902

>  <Smiles>  (902) 
CC1=CC(C2=C(C(C1)C=C(C)C)C3=CC=CC=C3N2)C4=C(C=CC5=C4OC(=O)C=C5)OC

>  <Chemical class>  (902) 
Miscellaneous coumarins

>  <Natural source>  (902) 
Murraya exotica

>  <Molecular Formula>  (902) 
C28H27NO3

>  <InChI-Key>  (902) 
REZQAJQPFFQDSY-UHFFFAOYSA-N

>  <Total Molweight>  (902) 
425.526

>  <cLogP>  (902) 
6.0702

>  <cLogS>  (902) 
-6.148

>  <H-Acceptors>  (902) 
4

>  <H-Donors>  (902) 
1

>  <Rotatable Bonds>  (902) 
3

>  <Polar Surface Area>  (902) 
51.32

$$$$
CDB0903
     RDKit          3D

 63 67  0  0  0  0  0  0  0  0999 V2000
    0.2774   -2.4659    3.3705 C   0  0  0  0  0  0  0  0  0  0  0  0
    0.3262   -1.5030    2.2126 C   0  0  0  0  0  0  0  0  0  0  0  0
   -0.5741   -0.5078    2.1164 C   0  0  0  0  0  0  0  0  0  0  0  0
   -0.7466    0.5644    1.0615 C   0  0  0  0  0  0  0  0  0  0  0  0
    0.3855    0.8965    0.1102 C   0  0  0  0  0  0  0  0  0  0  0  0
    1.7082    0.4668    0.0099 C   0  0  0  0  0  0  0  0  0  0  0  0
    2.3585   -0.5974    0.8843 C   0  0  0  0  0  0  0  0  0  0  0  0
    1.4139   -1.7794    1.1997 C   0  0  0  0  0  0  0  0  0  0  0  0
    3.5974   -1.2100    0.2495 C   0  0  0  0  0  0  0  0  0  0  0  0
    4.8406   -1.3187    0.7626 C   0  0  0  0  0  0  0  0  0  0  0  0
    5.2679   -0.8410    2.1221 C   0  0  0  0  0  0  0  0  0  0  0  0
    5.9413   -1.9633   -0.0395 C   0  0  0  0  0  0  0  0  0  0  0  0
    2.3278    1.2940   -1.0076 C   0  0  0  0  0  0  0  0  0  0  0  0
    3.6333    1.4304   -1.5349 C   0  0  0  0  0  0  0  0  0  0  0  0
    3.8933    2.3538   -2.5561 C   0  0  0  0  0  0  0  0  0  0  0  0
    2.8763    3.1548   -3.0600 C   0  0  0  0  0  0  0  0  0  0  0  0
    1.5805    3.0611   -2.5515 C   0  0  0  0  0  0  0  0  0  0  0  0
    1.3442    2.1318   -1.5296 C   0  0  0  0  0  0  0  0  0  0  0  0
    0.1901    1.8666   -0.8457 N   0  0  0  0  0  0  0  0  0  0  0  0
   -2.0959    0.3970    0.3422 C   0  0  0  0  0  0  0  0  0  0  0  0
   -3.1656    1.2828    0.5887 C   0  0  0  0  0  0  0  0  0  0  0  0
   -4.3899    1.1178   -0.0791 C   0  0  0  0  0  0  0  0  0  0  0  0
   -4.5832    0.0729   -0.9917 C   0  0  0  0  0  0  0  0  0  0  0  0
   -3.5316   -0.8202   -1.2469 C   0  0  0  0  0  0  0  0  0  0  0  0
   -2.3140   -0.6458   -0.5794 C   0  0  0  0  0  0  0  0  0  0  0  0
   -1.2469   -1.5416   -0.8330 O   0  0  0  0  0  0  0  0  0  0  0  0
   -1.3458   -2.6067   -1.7133 C   0  0  0  0  0  0  0  0  0  0  0  0
   -0.4270   -3.3918   -1.9159 O   0  0  0  0  0  0  0  0  0  0  0  0
   -2.6324   -2.7596   -2.4046 C   0  0  0  0  0  0  0  0  0  0  0  0
   -3.6564   -1.9299   -2.1906 C   0  0  0  0  0  0  0  0  0  0  0  0
   -5.7498   -0.1480   -1.6809 O   0  0  0  0  0  0  0  0  0  0  0  0
   -6.8564    0.7030   -1.4115 C   0  0  0  0  0  0  0  0  0  0  0  0
   -2.9189    2.2974    1.4782 O   0  0  0  0  0  0  0  0  0  0  0  0
   -4.0173    3.0840    1.9228 C   0  0  0  0  0  0  0  0  0  0  0  0
   -0.5370   -2.2409    4.0671 H   0  0  0  0  0  0  0  0  0  0  0  0
    0.1293   -3.4880    3.0068 H   0  0  0  0  0  0  0  0  0  0  0  0
    1.2154   -2.4270    3.9341 H   0  0  0  0  0  0  0  0  0  0  0  0
   -1.3143   -0.4242    2.9134 H   0  0  0  0  0  0  0  0  0  0  0  0
   -0.7978    1.4808    1.6689 H   0  0  0  0  0  0  0  0  0  0  0  0
    2.6209   -0.0974    1.8231 H   0  0  0  0  0  0  0  0  0  0  0  0
    2.0198   -2.6095    1.5926 H   0  0  0  0  0  0  0  0  0  0  0  0
    0.9614   -2.1736    0.2825 H   0  0  0  0  0  0  0  0  0  0  0  0
    3.4151   -1.6155   -0.7481 H   0  0  0  0  0  0  0  0  0  0  0  0
    4.4488   -0.4484    2.7272 H   0  0  0  0  0  0  0  0  0  0  0  0
    6.0170   -0.0486    2.0226 H   0  0  0  0  0  0  0  0  0  0  0  0
    5.7140   -1.6670    2.6864 H   0  0  0  0  0  0  0  0  0  0  0  0
    6.7623   -1.2551   -0.1922 H   0  0  0  0  0  0  0  0  0  0  0  0
    5.5999   -2.2927   -1.0265 H   0  0  0  0  0  0  0  0  0  0  0  0
    6.3308   -2.8406    0.4873 H   0  0  0  0  0  0  0  0  0  0  0  0
    4.4537    0.8310   -1.1561 H   0  0  0  0  0  0  0  0  0  0  0  0
    4.9012    2.4421   -2.9529 H   0  0  0  0  0  0  0  0  0  0  0  0
    3.0927    3.8667   -3.8524 H   0  0  0  0  0  0  0  0  0  0  0  0
    0.7872    3.6944   -2.9345 H   0  0  0  0  0  0  0  0  0  0  0  0
   -0.6814    2.3548   -0.9960 H   0  0  0  0  0  0  0  0  0  0  0  0
   -5.1955    1.8162    0.1070 H   0  0  0  0  0  0  0  0  0  0  0  0
   -2.7021   -3.5882   -3.0980 H   0  0  0  0  0  0  0  0  0  0  0  0
   -4.5959   -2.0682   -2.7152 H   0  0  0  0  0  0  0  0  0  0  0  0
   -7.1599    0.6369   -0.3615 H   0  0  0  0  0  0  0  0  0  0  0  0
   -7.6971    0.3610   -2.0226 H   0  0  0  0  0  0  0  0  0  0  0  0
   -6.6364    1.7366   -1.6978 H   0  0  0  0  0  0  0  0  0  0  0  0
   -4.8038    2.4596    2.3594 H   0  0  0  0  0  0  0  0  0  0  0  0
   -3.6516    3.7548    2.7062 H   0  0  0  0  0  0  0  0  0  0  0  0
   -4.4073    3.7046    1.1097 H   0  0  0  0  0  0  0  0  0  0  0  0
  1  2  1  0
  2  3  2  0
  3  4  1  0
  4  5  1  0
  5  6  2  0
  6  7  1  0
  7  8  1  0
  7  9  1  0
  9 10  2  3
 10 11  1  0
 10 12  1  0
  6 13  1  0
 13 14  2  0
 14 15  1  0
 15 16  2  0
 16 17  1  0
 17 18  2  0
 18 19  1  0
  4 20  1  0
 20 21  2  0
 21 22  1  0
 22 23  2  0
 23 24  1  0
 24 25  2  0
 25 26  1  0
 26 27  1  0
 27 28  2  0
 27 29  1  0
 29 30  2  0
 23 31  1  0
 31 32  1  0
 21 33  1  0
 33 34  1  0
  8  2  1  0
 19  5  1  0
 18 13  1  0
 25 20  1  0
 30 24  1  0
  1 35  1  0
  1 36  1  0
  1 37  1  0
  3 38  1  0
  4 39  1  0
  7 40  1  0
  8 41  1  0
  8 42  1  0
  9 43  1  0
 11 44  1  0
 11 45  1  0
 11 46  1  0
 12 47  1  0
 12 48  1  0
 12 49  1  0
 14 50  1  0
 15 51  1  0
 16 52  1  0
 17 53  1  0
 19 54  1  0
 22 55  1  0
 29 56  1  0
 30 57  1  0
 32 58  1  0
 32 59  1  0
 32 60  1  0
 34 61  1  0
 34 62  1  0
 34 63  1  0
M  END
>  <Name>  (903) 
Exotine B

>  <PubChem ID>  (903) 
122208056

>  <CDB ID>  (903) 
CDB0903

>  <Smiles>  (903) 
CC1=CC(C2=C(C(C1)C=C(C)C)C3=CC=CC=C3N2)C4=C(C=C(C5=C4OC(=O)C=C5)OC)OC

>  <Chemical class>  (903) 
Miscellaneous coumarins

>  <Natural source>  (903) 
Murraya exotica

>  <Molecular Formula>  (903) 
C29H29NO4

>  <InChI-Key>  (903) 
AMVDJIOHTCIXCX-UHFFFAOYSA-N

>  <Total Molweight>  (903) 
455.552

>  <cLogP>  (903) 
6.0002

>  <cLogS>  (903) 
-6.166

>  <H-Acceptors>  (903) 
5

>  <H-Donors>  (903) 
1

>  <Rotatable Bonds>  (903) 
4

>  <Polar Surface Area>  (903) 
60.55

$$$$
CDB0904
     RDKit          3D

 36 38  0  0  0  0  0  0  0  0999 V2000
    5.6780    0.2665    0.1911 C   0  0  0  0  0  0  0  0  0  0  0  0
    4.6725    0.8326   -0.6416 O   0  0  0  0  0  0  0  0  0  0  0  0
    3.3947    0.3911   -0.4488 C   0  0  0  0  0  0  0  0  0  0  0  0
    2.4277    1.0199   -1.2322 C   0  0  0  0  0  0  0  0  0  0  0  0
    1.0535    0.6759   -1.1649 C   0  0  0  0  0  0  0  0  0  0  0  0
    0.6221   -0.2747   -0.2105 C   0  0  0  0  0  0  0  0  0  0  0  0
   -0.7680   -0.6545    0.1167 C   0  0  0  0  0  0  0  0  0  0  0  0
   -1.8867    0.1758   -0.1070 C   0  0  0  0  0  0  0  0  0  0  0  0
   -3.1896   -0.2410    0.1863 C   0  0  0  0  0  0  0  0  0  0  0  0
   -3.3808   -1.5021    0.7475 C   0  0  0  0  0  0  0  0  0  0  0  0
   -2.3069   -2.3180    1.0563 C   0  0  0  0  0  0  0  0  0  0  0  0
   -1.0067   -1.8779    0.7687 C   0  0  0  0  0  0  0  0  0  0  0  0
    0.1176   -2.7061    1.2586 C   0  0  0  0  0  0  0  0  0  0  0  0
   -0.0439   -3.8390    1.6935 O   0  0  0  0  0  0  0  0  0  0  0  0
    1.3553   -2.0848    1.2789 O   0  0  0  0  0  0  0  0  0  0  0  0
    1.6384   -0.9507    0.4840 C   0  0  0  0  0  0  0  0  0  0  0  0
    2.9973   -0.6281    0.3973 C   0  0  0  0  0  0  0  0  0  0  0  0
   -4.6395   -1.9447    1.0431 O   0  0  0  0  0  0  0  0  0  0  0  0
   -4.3363    0.4827   -0.0154 O   0  0  0  0  0  0  0  0  0  0  0  0
   -4.1801    1.8069   -0.5146 C   0  0  0  0  0  0  0  0  0  0  0  0
    0.1709    1.3312   -2.1978 C   0  0  0  0  0  0  0  0  0  0  0  0
   -0.2653    2.5956   -1.7254 O   0  0  0  0  0  0  0  0  0  0  0  0
    5.4633    0.4451    1.2500 H   0  0  0  0  0  0  0  0  0  0  0  0
    5.8003   -0.8023   -0.0131 H   0  0  0  0  0  0  0  0  0  0  0  0
    6.6250    0.7611   -0.0453 H   0  0  0  0  0  0  0  0  0  0  0  0
    2.7547    1.7893   -1.9318 H   0  0  0  0  0  0  0  0  0  0  0  0
   -1.7302    1.1799   -0.4782 H   0  0  0  0  0  0  0  0  0  0  0  0
   -2.4799   -3.2740    1.5451 H   0  0  0  0  0  0  0  0  0  0  0  0
    3.7046   -1.2017    0.9856 H   0  0  0  0  0  0  0  0  0  0  0  0
   -5.2381   -1.2195    0.7775 H   0  0  0  0  0  0  0  0  0  0  0  0
   -3.7296    1.8012   -1.5126 H   0  0  0  0  0  0  0  0  0  0  0  0
   -3.6010    2.4248    0.1796 H   0  0  0  0  0  0  0  0  0  0  0  0
   -5.1769    2.2497   -0.6021 H   0  0  0  0  0  0  0  0  0  0  0  0
   -0.6888    0.7097   -2.4643 H   0  0  0  0  0  0  0  0  0  0  0  0
    0.7334    1.4817   -3.1278 H   0  0  0  0  0  0  0  0  0  0  0  0
   -0.5608    3.0983   -2.5032 H   0  0  0  0  0  0  0  0  0  0  0  0
  1  2  1  0
  2  3  1  0
  3  4  1  0
  4  5  2  0
  5  6  1  0
  6  7  1  0
  7  8  2  0
  8  9  1  0
  9 10  2  0
 10 11  1  0
 11 12  2  0
 12 13  1  0
 13 14  2  0
 13 15  1  0
 15 16  1  0
 16 17  1  0
 10 18  1  0
  9 19  1  0
 19 20  1  0
  5 21  1  0
 21 22  1  0
 17  3  2  0
 16  6  2  0
 12  7  1  0
  1 23  1  0
  1 24  1  0
  1 25  1  0
  4 26  1  0
  8 27  1  0
 11 28  1  0
 17 29  1  0
 18 30  1  0
 20 31  1  0
 20 32  1  0
 20 33  1  0
 21 34  1  0
 21 35  1  0
 22 36  1  0
M  END
>  <Name>  (904) 
Herpetolide A

>  <PubChem ID>  (904) 
24813534

>  <CDB ID>  (904) 
CDB0904

>  <Smiles>  (904) 
COC1=CC(=C2C3=CC(=C(C=C3C(=O)OC2=C1)O)OC)CO

>  <Chemical class>  (904) 
Miscellaneous coumarins

>  <Natural source>  (904) 
Herpetospermum caudigerum

>  <Molecular Formula>  (904) 
C16H14O6

>  <InChI-Key>  (904) 
QFMFJEWJLZEZLH-UHFFFAOYSA-N

>  <Total Molweight>  (904) 
302.281

>  <cLogP>  (904) 
1.9065

>  <cLogS>  (904) 
-3.71

>  <H-Acceptors>  (904) 
6

>  <H-Donors>  (904) 
2

>  <Rotatable Bonds>  (904) 
3

>  <Polar Surface Area>  (904) 
85.22

$$$$
CDB0905
     RDKit          3D

 34 36  0  0  0  0  0  0  0  0999 V2000
    5.3953    1.4179   -0.2110 C   0  0  0  0  0  0  0  0  0  0  0  0
    4.8141    0.1366    0.0042 O   0  0  0  0  0  0  0  0  0  0  0  0
    3.4531    0.0800    0.0938 C   0  0  0  0  0  0  0  0  0  0  0  0
    2.5842    1.1658    0.1118 C   0  0  0  0  0  0  0  0  0  0  0  0
    1.1898    0.9687    0.2171 C   0  0  0  0  0  0  0  0  0  0  0  0
    0.6230   -0.3219    0.2358 C   0  0  0  0  0  0  0  0  0  0  0  0
   -0.8078   -0.6796    0.1750 C   0  0  0  0  0  0  0  0  0  0  0  0
   -1.8165    0.1744   -0.3209 C   0  0  0  0  0  0  0  0  0  0  0  0
   -3.1697   -0.1944   -0.3234 C   0  0  0  0  0  0  0  0  0  0  0  0
   -3.5236   -1.4655    0.1360 C   0  0  0  0  0  0  0  0  0  0  0  0
   -2.5503   -2.3625    0.5552 C   0  0  0  0  0  0  0  0  0  0  0  0
   -1.2009   -1.9758    0.5477 C   0  0  0  0  0  0  0  0  0  0  0  0
   -0.1929   -3.0134    0.8666 C   0  0  0  0  0  0  0  0  0  0  0  0
   -0.5102   -4.1063    1.3178 O   0  0  0  0  0  0  0  0  0  0  0  0
    1.1188   -2.7008    0.5489 O   0  0  0  0  0  0  0  0  0  0  0  0
    1.5410   -1.3750    0.3114 C   0  0  0  0  0  0  0  0  0  0  0  0
    2.9247   -1.1978    0.2250 C   0  0  0  0  0  0  0  0  0  0  0  0
   -4.8405   -1.8347    0.1419 O   0  0  0  0  0  0  0  0  0  0  0  0
   -4.1978    0.5953   -0.7638 O   0  0  0  0  0  0  0  0  0  0  0  0
   -3.8940    1.9208   -1.1750 C   0  0  0  0  0  0  0  0  0  0  0  0
    0.3913    2.1947    0.4350 C   0  0  0  0  0  0  0  0  0  0  0  0
    0.7350    3.2808   -0.0145 O   0  0  0  0  0  0  0  0  0  0  0  0
    5.2289    2.0731    0.6502 H   0  0  0  0  0  0  0  0  0  0  0  0
    6.4752    1.2805   -0.3215 H   0  0  0  0  0  0  0  0  0  0  0  0
    5.0204    1.8735   -1.1336 H   0  0  0  0  0  0  0  0  0  0  0  0
    2.9630    2.1847    0.0820 H   0  0  0  0  0  0  0  0  0  0  0  0
   -1.5427    1.1307   -0.7519 H   0  0  0  0  0  0  0  0  0  0  0  0
   -2.8223   -3.3690    0.8642 H   0  0  0  0  0  0  0  0  0  0  0  0
    3.5880   -2.0585    0.2713 H   0  0  0  0  0  0  0  0  0  0  0  0
   -4.9261   -2.7426    0.4742 H   0  0  0  0  0  0  0  0  0  0  0  0
   -3.4327    2.4923   -0.3627 H   0  0  0  0  0  0  0  0  0  0  0  0
   -3.2600    1.9189   -2.0676 H   0  0  0  0  0  0  0  0  0  0  0  0
   -4.8349    2.4143   -1.4366 H   0  0  0  0  0  0  0  0  0  0  0  0
   -0.5229    2.0946    1.0422 H   0  0  0  0  0  0  0  0  0  0  0  0
  1  2  1  0
  2  3  1  0
  3  4  1  0
  4  5  2  0
  5  6  1  0
  6  7  1  0
  7  8  2  0
  8  9  1  0
  9 10  2  0
 10 11  1  0
 11 12  2  0
 12 13  1  0
 13 14  2  0
 13 15  1  0
 15 16  1  0
 16 17  1  0
 10 18  1  0
  9 19  1  0
 19 20  1  0
  5 21  1  0
 21 22  2  0
 17  3  2  0
 16  6  2  0
 12  7  1  0
  1 23  1  0
  1 24  1  0
  1 25  1  0
  4 26  1  0
  8 27  1  0
 11 28  1  0
 17 29  1  0
 18 30  1  0
 20 31  1  0
 20 32  1  0
 20 33  1  0
 21 34  1  0
M  END
>  <Name>  (905) 
Herpetolide B

>  <PubChem ID>  (905) 
24813535

>  <CDB ID>  (905) 
CDB0905

>  <Smiles>  (905) 
COC1=CC(=C2C3=CC(=C(C=C3C(=O)OC2=C1)O)OC)C=O

>  <Chemical class>  (905) 
Miscellaneous coumarins

>  <Natural source>  (905) 
Herpetospermum caudigerum

>  <Molecular Formula>  (905) 
C16H12O6

>  <InChI-Key>  (905) 
HAQBTDDAPNUETN-UHFFFAOYSA-N

>  <Total Molweight>  (905) 
300.265

>  <cLogP>  (905) 
2.4371

>  <cLogS>  (905) 
-4.15

>  <H-Acceptors>  (905) 
6

>  <H-Donors>  (905) 
1

>  <Rotatable Bonds>  (905) 
3

>  <Polar Surface Area>  (905) 
82.06

$$$$
